taskid: 0 hostname: p10a51.pbm.ihost.com
  Ntasks in X  10 , ntasks in Y  16
 Setting blank km_opt entries to domain #1 values.
  --> The km_opt entry in the namelist.input is now max_domains.
 Setting blank diff_opt entries to domain #1 values.
  --> The diff_opt entry in the namelist.input is now max_domains.
 --- WARNING: traj_opt is zero, but num_traj is not zero; setting num_traj to zero.
 --- NOTE: hypsometric_opt is 2, setting adjust_heights = F
 --- NOTE: sst_update is 0, setting io_form_auxinput4 = 0 and auxinput4_interval = 0 for all domains
 --- NOTE: sst_update is 0, setting io_form_auxinput4 = 0 and auxinput4_interval = 0 for all domains
 --- NOTE: sst_update is 0, setting io_form_auxinput4 = 0 and auxinput4_interval = 0 for all domains
 --- NOTE: sst_update is 0, setting io_form_auxinput4 = 0 and auxinput4_interval = 0 for all domains
 --- NOTE: grid_fdda is 0 for domain      1, setting gfdda interval and ending time to 0 for that domain.
 --- NOTE: both grid_sfdda and pxlsm_soil_nudge are 0 for domain      1, setting sgfdda interval and ending time to 0 for that domain.
 --- NOTE: obs_nudge_opt is 0 for domain      1, setting obs nudging interval and ending time to 0 for that domain.
 --- NOTE: grid_fdda is 0 for domain      2, setting gfdda interval and ending time to 0 for that domain.
 --- NOTE: both grid_sfdda and pxlsm_soil_nudge are 0 for domain      2, setting sgfdda interval and ending time to 0 for that domain.
 --- NOTE: obs_nudge_opt is 0 for domain      2, setting obs nudging interval and ending time to 0 for that domain.
 --- NOTE: grid_fdda is 0 for domain      3, setting gfdda interval and ending time to 0 for that domain.
 --- NOTE: both grid_sfdda and pxlsm_soil_nudge are 0 for domain      3, setting sgfdda interval and ending time to 0 for that domain.
 --- NOTE: obs_nudge_opt is 0 for domain      3, setting obs nudging interval and ending time to 0 for that domain.
 --- NOTE: grid_fdda is 0 for domain      4, setting gfdda interval and ending time to 0 for that domain.
 --- NOTE: both grid_sfdda and pxlsm_soil_nudge are 0 for domain      4, setting sgfdda interval and ending time to 0 for that domain.
 --- NOTE: obs_nudge_opt is 0 for domain      4, setting obs nudging interval and ending time to 0 for that domain.
 bl_pbl_physics /= 4, implies mfshconv must be 0, resetting
 --- NOTE: num_soil_layers has been set to      4
 WRF V3.6 MODEL
  *************************************
  Parent domain
  ids,ide,jds,jde  1 271 1 181
  ims,ime,jms,jme  -4 34 -4 19
  ips,ipe,jps,jpe  1 27 1 12
  *************************************
 DYNAMICS OPTION: Eulerian Mass Coordinate
    alloc_space_field: domain  1 ,  95252168  bytes allocated
   med_initialdata_input: calling input_input
Timing for processing wrfinput file (stream 0) for domain        1:    3.83422 elapsed seconds
 INPUT LandUse = "USGS"
  LANDUSE TYPE = "USGS" FOUND 33  CATEGORIES 2  SEASONS WATER CATEGORY =  16  SNOW CATEGORY =  24
 INITIALIZE THREE Noah LSM RELATED TABLES
  LANDUSE TYPE = USGS FOUND 27  CATEGORIES
  INPUT SOIL TEXTURE CLASSIFICATION = STAS
  SOIL TEXTURE CLASSIFICATION = STAS FOUND 19  CATEGORIES
 *********************************************************************
 *             PROGRAM:WRF/CHEM V3.6 MODEL
 *                                                                   *
 *    PLEASE REPORT ANY BUGS TO WRF/CHEM HELP at                     *
 *                                                                   *
 *              wrfchemhelp.gsd@noaa.gov                             *
 *                                                                   *
 *********************************************************************
 WARNING: dust option 1 currently works only with the GOCART aerosol option.
 WARNING: sea salt option 1 currently works only with the GOCART aerosol option.
  *************************************
  Nesting domain
  ids,ide,jds,jde  1 361 1 253
  ims,ime,jms,jme  -4 48 -4 27
  ips,ipe,jps,jpe  1 36 1 16
  INTERMEDIATE domain
  ids,ide,jds,jde  74 199 47 136
  ims,ime,jms,jme  69 97 42 63
  ips,ipe,jps,jpe  72 87 45 53
  *************************************
 d01 2016-02-05_12:00:00  alloc_space_field: domain  2 ,  168236264  bytes allocated
 d01 2016-02-05_12:00:00 *** Initializing nest domain # 2 from an input file. ***
 d01 2016-02-05_12:00:00 med_initialdata_input: calling input_input
Timing for processing wrfinput file (stream 0) for domain        2:    7.00454 elapsed seconds
 INPUT LandUse = "USGS"
  LANDUSE TYPE = "USGS" FOUND 33  CATEGORIES 2  SEASONS WATER CATEGORY =  16  SNOW CATEGORY =  24
 INITIALIZE THREE Noah LSM RELATED TABLES
  LANDUSE TYPE = USGS FOUND 27  CATEGORIES
  INPUT SOIL TEXTURE CLASSIFICATION = STAS
  SOIL TEXTURE CLASSIFICATION = STAS FOUND 19  CATEGORIES
 *********************************************************************
 *             PROGRAM:WRF/CHEM V3.6 MODEL
 *                                                                   *
 *    PLEASE REPORT ANY BUGS TO WRF/CHEM HELP at                     *
 *                                                                   *
 *              wrfchemhelp.gsd@noaa.gov                             *
 *                                                                   *
 *********************************************************************
 WARNING: dust option 1 currently works only with the GOCART aerosol option.
 WARNING: sea salt option 1 currently works only with the GOCART aerosol option.
 INPUT LandUse = "USGS"
  LANDUSE TYPE = "USGS" FOUND 33  CATEGORIES 2  SEASONS WATER CATEGORY =  16  SNOW CATEGORY =  24
 INITIALIZE THREE Noah LSM RELATED TABLES
  LANDUSE TYPE = USGS FOUND 27  CATEGORIES
  INPUT SOIL TEXTURE CLASSIFICATION = STAS
  SOIL TEXTURE CLASSIFICATION = STAS FOUND 19  CATEGORIES
 *********************************************************************
 *             PROGRAM:WRF/CHEM V3.6 MODEL
 *                                                                   *
 *    PLEASE REPORT ANY BUGS TO WRF/CHEM HELP at                     *
 *                                                                   *
 *              wrfchemhelp.gsd@noaa.gov                             *
 *                                                                   *
 *********************************************************************
 WARNING: dust option 1 currently works only with the GOCART aerosol option.
 WARNING: sea salt option 1 currently works only with the GOCART aerosol option.
 INPUT LandUse = "USGS"
  LANDUSE TYPE = "USGS" FOUND 33  CATEGORIES 2  SEASONS WATER CATEGORY =  16  SNOW CATEGORY =  24
 INITIALIZE THREE Noah LSM RELATED TABLES
  LANDUSE TYPE = USGS FOUND 27  CATEGORIES
  INPUT SOIL TEXTURE CLASSIFICATION = STAS
  SOIL TEXTURE CLASSIFICATION = STAS FOUND 19  CATEGORIES
 *********************************************************************
 *             PROGRAM:WRF/CHEM V3.6 MODEL
 *                                                                   *
 *    PLEASE REPORT ANY BUGS TO WRF/CHEM HELP at                     *
 *                                                                   *
 *              wrfchemhelp.gsd@noaa.gov                             *
 *                                                                   *
 *********************************************************************
 WARNING: dust option 1 currently works only with the GOCART aerosol option.
 WARNING: sea salt option 1 currently works only with the GOCART aerosol option.
Timing for Writing wrfout_d01_2016-02-05_12:00:00 for domain        1:    1.93774 elapsed seconds
  mediation_integrate: med_read_wrf_chem_emissions: Open file wrfchemi_12z_d01
  HOURLY EMISSIONS UPDATE TIME         .0        .0
 mediation_integrate: med_read_wrf_chem_emissions: Read emissions for time 2016-02-05_12:00:00
 **WARNING** Time in input file not being checked **WARNING**
Timing for processing lateral boundary for domain        1:    3.16855 elapsed seconds
  Tile Strategy is not specified. Assuming 1D-Y
 WRF TILE   1 IS      1 IE     27 JS      1 JE     12
 WRF NUMBER OF TILES =   1
  photolysis_driver: called for domain  1
  *************************************
  Nesting domain
  ids,ide,jds,jde  1 307 1 241
  ims,ime,jms,jme  -4 42 -4 27
  ips,ipe,jps,jpe  1 31 1 15
  INTERMEDIATE domain
  ids,ide,jds,jde  124 231 35 120
  ims,ime,jms,jme  119 145 30 51
  ips,ipe,jps,jpe  122 135 33 41
  *************************************
 d02 2016-02-05_12:00:00  alloc_space_field: domain  3 ,  149693108  bytes allocated
 d02 2016-02-05_12:00:00  alloc_space_field: domain  3 ,  7482024  bytes allocated
 d02 2016-02-05_12:00:00 *** Initializing nest domain # 3 from an input file. ***
 d02 2016-02-05_12:00:00 med_initialdata_input: calling input_input
Timing for processing wrfinput file (stream 0) for domain        3:    6.26809 elapsed seconds
 INPUT LandUse = "USGS"
  LANDUSE TYPE = "USGS" FOUND 33  CATEGORIES 2  SEASONS WATER CATEGORY =  16  SNOW CATEGORY =  24
 INITIALIZE THREE Noah LSM RELATED TABLES
  LANDUSE TYPE = USGS FOUND 27  CATEGORIES
  INPUT SOIL TEXTURE CLASSIFICATION = STAS
  SOIL TEXTURE CLASSIFICATION = STAS FOUND 19  CATEGORIES
 *********************************************************************
 *             PROGRAM:WRF/CHEM V3.6 MODEL
 *                                                                   *
 *    PLEASE REPORT ANY BUGS TO WRF/CHEM HELP at                     *
 *                                                                   *
 *              wrfchemhelp.gsd@noaa.gov                             *
 *                                                                   *
 *********************************************************************
 WARNING: dust option 1 currently works only with the GOCART aerosol option.
 WARNING: sea salt option 1 currently works only with the GOCART aerosol option.
 INPUT LandUse = "USGS"
  LANDUSE TYPE = "USGS" FOUND 33  CATEGORIES 2  SEASONS WATER CATEGORY =  16  SNOW CATEGORY =  24
 INITIALIZE THREE Noah LSM RELATED TABLES
  LANDUSE TYPE = USGS FOUND 27  CATEGORIES
  INPUT SOIL TEXTURE CLASSIFICATION = STAS
  SOIL TEXTURE CLASSIFICATION = STAS FOUND 19  CATEGORIES
 *********************************************************************
 *             PROGRAM:WRF/CHEM V3.6 MODEL
 *                                                                   *
 *    PLEASE REPORT ANY BUGS TO WRF/CHEM HELP at                     *
 *                                                                   *
 *              wrfchemhelp.gsd@noaa.gov                             *
 *                                                                   *
 *********************************************************************
 WARNING: dust option 1 currently works only with the GOCART aerosol option.
 WARNING: sea salt option 1 currently works only with the GOCART aerosol option.
 INPUT LandUse = "USGS"
  LANDUSE TYPE = "USGS" FOUND 33  CATEGORIES 2  SEASONS WATER CATEGORY =  16  SNOW CATEGORY =  24
 INITIALIZE THREE Noah LSM RELATED TABLES
  LANDUSE TYPE = USGS FOUND 27  CATEGORIES
  INPUT SOIL TEXTURE CLASSIFICATION = STAS
  SOIL TEXTURE CLASSIFICATION = STAS FOUND 19  CATEGORIES
 *********************************************************************
 *             PROGRAM:WRF/CHEM V3.6 MODEL
 *                                                                   *
 *    PLEASE REPORT ANY BUGS TO WRF/CHEM HELP at                     *
 *                                                                   *
 *              wrfchemhelp.gsd@noaa.gov                             *
 *                                                                   *
 *********************************************************************
 WARNING: dust option 1 currently works only with the GOCART aerosol option.
 WARNING: sea salt option 1 currently works only with the GOCART aerosol option.
  *************************************
  Nesting domain
  ids,ide,jds,jde  1 217 1 388
  ims,ime,jms,jme  -4 33 -4 36
  ips,ipe,jps,jpe  1 22 1 25
  INTERMEDIATE domain
  ids,ide,jds,jde  225 302 83 217
  ims,ime,jms,jme  220 243 78 102
  ips,ipe,jps,jpe  223 233 81 92
  *************************************
 d02 2016-02-05_12:00:00  alloc_space_field: domain  4 ,  154732412  bytes allocated
 d02 2016-02-05_12:00:00  alloc_space_field: domain  4 ,  7557600  bytes allocated
 d02 2016-02-05_12:00:00 *** Initializing nest domain # 4 from an input file. ***
 d02 2016-02-05_12:00:00 med_initialdata_input: calling input_input
Timing for processing wrfinput file (stream 0) for domain        4:    7.51582 elapsed seconds
 INPUT LandUse = "USGS"
  LANDUSE TYPE = "USGS" FOUND 33  CATEGORIES 2  SEASONS WATER CATEGORY =  16  SNOW CATEGORY =  24
 INITIALIZE THREE Noah LSM RELATED TABLES
  LANDUSE TYPE = USGS FOUND 27  CATEGORIES
  INPUT SOIL TEXTURE CLASSIFICATION = STAS
  SOIL TEXTURE CLASSIFICATION = STAS FOUND 19  CATEGORIES
 *********************************************************************
 *             PROGRAM:WRF/CHEM V3.6 MODEL
 *                                                                   *
 *    PLEASE REPORT ANY BUGS TO WRF/CHEM HELP at                     *
 *                                                                   *
 *              wrfchemhelp.gsd@noaa.gov                             *
 *                                                                   *
 *********************************************************************
 WARNING: dust option 1 currently works only with the GOCART aerosol option.
 WARNING: sea salt option 1 currently works only with the GOCART aerosol option.
 INPUT LandUse = "USGS"
  LANDUSE TYPE = "USGS" FOUND 33  CATEGORIES 2  SEASONS WATER CATEGORY =  16  SNOW CATEGORY =  24
 INITIALIZE THREE Noah LSM RELATED TABLES
  LANDUSE TYPE = USGS FOUND 27  CATEGORIES
  INPUT SOIL TEXTURE CLASSIFICATION = STAS
  SOIL TEXTURE CLASSIFICATION = STAS FOUND 19  CATEGORIES
 *********************************************************************
 *             PROGRAM:WRF/CHEM V3.6 MODEL
 *                                                                   *
 *    PLEASE REPORT ANY BUGS TO WRF/CHEM HELP at                     *
 *                                                                   *
 *              wrfchemhelp.gsd@noaa.gov                             *
 *                                                                   *
 *********************************************************************
 WARNING: dust option 1 currently works only with the GOCART aerosol option.
 WARNING: sea salt option 1 currently works only with the GOCART aerosol option.
 INPUT LandUse = "USGS"
  LANDUSE TYPE = "USGS" FOUND 33  CATEGORIES 2  SEASONS WATER CATEGORY =  16  SNOW CATEGORY =  24
 INITIALIZE THREE Noah LSM RELATED TABLES
  LANDUSE TYPE = USGS FOUND 27  CATEGORIES
  INPUT SOIL TEXTURE CLASSIFICATION = STAS
  SOIL TEXTURE CLASSIFICATION = STAS FOUND 19  CATEGORIES
 *********************************************************************
 *             PROGRAM:WRF/CHEM V3.6 MODEL
 *                                                                   *
 *    PLEASE REPORT ANY BUGS TO WRF/CHEM HELP at                     *
 *                                                                   *
 *              wrfchemhelp.gsd@noaa.gov                             *
 *                                                                   *
 *********************************************************************
 WARNING: dust option 1 currently works only with the GOCART aerosol option.
 WARNING: sea salt option 1 currently works only with the GOCART aerosol option.
Timing for Writing wrfout_d02_2016-02-05_12:00:00 for domain        2:    1.98039 elapsed seconds
  mediation_integrate: med_read_wrf_chem_emissions: Open file wrfchemi_12z_d02
  HOURLY EMISSIONS UPDATE TIME         .0        .0
 mediation_integrate: med_read_wrf_chem_emissions: Read emissions for time 2016-02-05_12:00:00
 **WARNING** Time in input file not being checked **WARNING**
  Tile Strategy is not specified. Assuming 1D-Y
 WRF TILE   1 IS      1 IE     36 JS      1 JE     16
 WRF NUMBER OF TILES =   1
  photolysis_driver: called for domain  2
Timing for Writing wrfout_d03_2016-02-05_12:00:00 for domain        3:    1.78479 elapsed seconds
  mediation_integrate: med_read_wrf_chem_emissions: Open file wrfchemi_12z_d03
  HOURLY EMISSIONS UPDATE TIME         .0        .0
 mediation_integrate: med_read_wrf_chem_emissions: Read emissions for time 2016-02-05_12:00:00
 **WARNING** Time in input file not being checked **WARNING**
  Tile Strategy is not specified. Assuming 1D-Y
 WRF TILE   1 IS      1 IE     31 JS      1 JE     15
 WRF NUMBER OF TILES =   1
  photolysis_driver: called for domain  3
Timing for main: time 2016-02-05_12:00:13 on domain   3:    4.95867 elapsed seconds
Timing for main: time 2016-02-05_12:00:26 on domain   3:     .21533 elapsed seconds
Timing for main: time 2016-02-05_12:00:40 on domain   3:     .18294 elapsed seconds
Timing for Writing wrfout_d04_2016-02-05_12:00:00 for domain        4:    1.92395 elapsed seconds
  mediation_integrate: med_read_wrf_chem_emissions: Open file wrfchemi_12z_d04
  HOURLY EMISSIONS UPDATE TIME         .0        .0
 mediation_integrate: med_read_wrf_chem_emissions: Read emissions for time 2016-02-05_12:00:00
 **WARNING** Time in input file not being checked **WARNING**
  Tile Strategy is not specified. Assuming 1D-Y
 WRF TILE   1 IS      1 IE     22 JS      1 JE     25
 WRF NUMBER OF TILES =   1
  photolysis_driver: called for domain  4
Timing for main: time 2016-02-05_12:00:20 on domain   4:    5.73725 elapsed seconds
Timing for main: time 2016-02-05_12:00:40 on domain   4:     .18450 elapsed seconds
Timing for main: time 2016-02-05_12:00:40 on domain   2:   33.88723 elapsed seconds
Timing for main: time 2016-02-05_12:00:53 on domain   3:     .19549 elapsed seconds
Timing for main: time 2016-02-05_12:01:06 on domain   3:     .18150 elapsed seconds
Timing for main: time 2016-02-05_12:01:20 on domain   3:     .18512 elapsed seconds
Timing for main: time 2016-02-05_12:01:00 on domain   4:     .22355 elapsed seconds
Timing for main: time 2016-02-05_12:01:20 on domain   4:     .21613 elapsed seconds
Timing for main: time 2016-02-05_12:01:20 on domain   2:    1.65103 elapsed seconds
Timing for main: time 2016-02-05_12:01:33 on domain   3:     .19610 elapsed seconds
Timing for main: time 2016-02-05_12:01:46 on domain   3:     .18480 elapsed seconds
Timing for main: time 2016-02-05_12:02:00 on domain   3:     .18632 elapsed seconds
Timing for main: time 2016-02-05_12:01:40 on domain   4:     .21881 elapsed seconds
Timing for main: time 2016-02-05_12:02:00 on domain   4:     .21446 elapsed seconds
Timing for main: time 2016-02-05_12:02:00 on domain   2:    1.68610 elapsed seconds
Timing for main: time 2016-02-05_12:02:00 on domain   1:   54.37679 elapsed seconds
Timing for main: time 2016-02-05_12:02:13 on domain   3:     .19822 elapsed seconds
Timing for main: time 2016-02-05_12:02:26 on domain   3:     .18853 elapsed seconds
Timing for main: time 2016-02-05_12:02:40 on domain   3:     .18116 elapsed seconds
Timing for main: time 2016-02-05_12:02:20 on domain   4:     .22246 elapsed seconds
Timing for main: time 2016-02-05_12:02:40 on domain   4:     .22055 elapsed seconds
Timing for main: time 2016-02-05_12:02:40 on domain   2:    1.71330 elapsed seconds
Timing for main: time 2016-02-05_12:02:53 on domain   3:     .19788 elapsed seconds
Timing for main: time 2016-02-05_12:03:06 on domain   3:     .18345 elapsed seconds
Timing for main: time 2016-02-05_12:03:20 on domain   3:     .18822 elapsed seconds
Timing for main: time 2016-02-05_12:03:00 on domain   4:     .21952 elapsed seconds
Timing for main: time 2016-02-05_12:03:20 on domain   4:     .21274 elapsed seconds
Timing for main: time 2016-02-05_12:03:20 on domain   2:    1.69266 elapsed seconds
Timing for main: time 2016-02-05_12:03:33 on domain   3:     .19234 elapsed seconds
Timing for main: time 2016-02-05_12:03:46 on domain   3:     .18044 elapsed seconds
Timing for main: time 2016-02-05_12:04:00 on domain   3:     .17831 elapsed seconds
Timing for main: time 2016-02-05_12:03:40 on domain   4:     .21696 elapsed seconds
Timing for main: time 2016-02-05_12:04:00 on domain   4:     .21190 elapsed seconds
Timing for main: time 2016-02-05_12:04:00 on domain   2:    1.66100 elapsed seconds
Timing for main: time 2016-02-05_12:04:00 on domain   1:    5.40183 elapsed seconds
Timing for main: time 2016-02-05_12:04:13 on domain   3:     .19318 elapsed seconds
Timing for main: time 2016-02-05_12:04:26 on domain   3:     .17857 elapsed seconds
Timing for main: time 2016-02-05_12:04:40 on domain   3:     .17958 elapsed seconds
Timing for main: time 2016-02-05_12:04:20 on domain   4:     .21781 elapsed seconds
Timing for main: time 2016-02-05_12:04:40 on domain   4:     .21248 elapsed seconds
Timing for main: time 2016-02-05_12:04:40 on domain   2:    1.66973 elapsed seconds
Timing for main: time 2016-02-05_12:04:53 on domain   3:     .19245 elapsed seconds
Timing for main: time 2016-02-05_12:05:06 on domain   3:     .20939 elapsed seconds
Timing for main: time 2016-02-05_12:05:20 on domain   3:     .17786 elapsed seconds
Timing for main: time 2016-02-05_12:05:00 on domain   4:     .22732 elapsed seconds
Timing for main: time 2016-02-05_12:05:20 on domain   4:     .21310 elapsed seconds
Timing for main: time 2016-02-05_12:05:20 on domain   2:    1.70942 elapsed seconds
Timing for main: time 2016-02-05_12:05:33 on domain   3:     .19286 elapsed seconds
Timing for main: time 2016-02-05_12:05:46 on domain   3:     .18008 elapsed seconds
Timing for main: time 2016-02-05_12:06:00 on domain   3:     .17832 elapsed seconds
Timing for main: time 2016-02-05_12:05:40 on domain   4:     .21729 elapsed seconds
Timing for main: time 2016-02-05_12:06:00 on domain   4:     .21221 elapsed seconds
Timing for main: time 2016-02-05_12:06:00 on domain   2:    1.66133 elapsed seconds
Timing for main: time 2016-02-05_12:06:00 on domain   1:    5.40584 elapsed seconds
Timing for main: time 2016-02-05_12:06:13 on domain   3:     .19337 elapsed seconds
Timing for main: time 2016-02-05_12:06:26 on domain   3:     .17875 elapsed seconds
Timing for main: time 2016-02-05_12:06:40 on domain   3:     .18014 elapsed seconds
Timing for main: time 2016-02-05_12:06:20 on domain   4:     .21704 elapsed seconds
Timing for main: time 2016-02-05_12:06:40 on domain   4:     .21291 elapsed seconds
Timing for main: time 2016-02-05_12:06:40 on domain   2:    1.67193 elapsed seconds
Timing for main: time 2016-02-05_12:06:53 on domain   3:     .19320 elapsed seconds
Timing for main: time 2016-02-05_12:07:06 on domain   3:     .17907 elapsed seconds
Timing for main: time 2016-02-05_12:07:20 on domain   3:     .17998 elapsed seconds
Timing for main: time 2016-02-05_12:07:00 on domain   4:     .21675 elapsed seconds
Timing for main: time 2016-02-05_12:07:20 on domain   4:     .21341 elapsed seconds
Timing for main: time 2016-02-05_12:07:20 on domain   2:    1.66324 elapsed seconds
Timing for main: time 2016-02-05_12:07:33 on domain   3:     .19306 elapsed seconds
Timing for main: time 2016-02-05_12:07:46 on domain   3:     .18220 elapsed seconds
Timing for main: time 2016-02-05_12:08:00 on domain   3:     .17923 elapsed seconds
Timing for main: time 2016-02-05_12:07:40 on domain   4:     .21732 elapsed seconds
Timing for main: time 2016-02-05_12:08:00 on domain   4:     .21431 elapsed seconds
Timing for main: time 2016-02-05_12:08:00 on domain   2:    1.66845 elapsed seconds
Timing for main: time 2016-02-05_12:08:00 on domain   1:    5.36368 elapsed seconds
Timing for main: time 2016-02-05_12:08:13 on domain   3:     .19826 elapsed seconds
Timing for main: time 2016-02-05_12:08:26 on domain   3:     .17733 elapsed seconds
Timing for main: time 2016-02-05_12:08:40 on domain   3:     .17891 elapsed seconds
Timing for main: time 2016-02-05_12:08:20 on domain   4:     .21750 elapsed seconds
Timing for main: time 2016-02-05_12:08:40 on domain   4:     .21312 elapsed seconds
Timing for main: time 2016-02-05_12:08:40 on domain   2:    1.67349 elapsed seconds
Timing for main: time 2016-02-05_12:08:53 on domain   3:     .19398 elapsed seconds
Timing for main: time 2016-02-05_12:09:06 on domain   3:     .17894 elapsed seconds
Timing for main: time 2016-02-05_12:09:20 on domain   3:     .18669 elapsed seconds
Timing for main: time 2016-02-05_12:09:00 on domain   4:     .21794 elapsed seconds
Timing for main: time 2016-02-05_12:09:20 on domain   4:     .21339 elapsed seconds
Timing for main: time 2016-02-05_12:09:20 on domain   2:    1.67021 elapsed seconds
Timing for main: time 2016-02-05_12:09:33 on domain   3:     .19320 elapsed seconds
Timing for main: time 2016-02-05_12:09:46 on domain   3:     .17878 elapsed seconds
Timing for main: time 2016-02-05_12:10:00 on domain   3:     .18055 elapsed seconds
Timing for main: time 2016-02-05_12:09:40 on domain   4:     .21775 elapsed seconds
Timing for main: time 2016-02-05_12:10:00 on domain   4:     .22738 elapsed seconds
Timing for main: time 2016-02-05_12:10:00 on domain   2:    1.67711 elapsed seconds
Timing for main: time 2016-02-05_12:10:00 on domain   1:    5.37790 elapsed seconds
Timing for main: time 2016-02-05_12:10:13 on domain   3:     .20163 elapsed seconds
Timing for main: time 2016-02-05_12:10:26 on domain   3:     .17906 elapsed seconds
Timing for main: time 2016-02-05_12:10:40 on domain   3:     .18540 elapsed seconds
Timing for main: time 2016-02-05_12:10:20 on domain   4:     .21795 elapsed seconds
Timing for main: time 2016-02-05_12:10:40 on domain   4:     .21252 elapsed seconds
Timing for main: time 2016-02-05_12:10:40 on domain   2:    1.69560 elapsed seconds
Timing for main: time 2016-02-05_12:10:53 on domain   3:     .19356 elapsed seconds
Timing for main: time 2016-02-05_12:11:06 on domain   3:     .17888 elapsed seconds
Timing for main: time 2016-02-05_12:11:20 on domain   3:     .17911 elapsed seconds
Timing for main: time 2016-02-05_12:11:00 on domain   4:     .21765 elapsed seconds
Timing for main: time 2016-02-05_12:11:20 on domain   4:     .21732 elapsed seconds
Timing for main: time 2016-02-05_12:11:20 on domain   2:    1.66754 elapsed seconds
Timing for main: time 2016-02-05_12:11:33 on domain   3:     .19263 elapsed seconds
Timing for main: time 2016-02-05_12:11:46 on domain   3:     .17918 elapsed seconds
Timing for main: time 2016-02-05_12:12:00 on domain   3:     .17982 elapsed seconds
Timing for main: time 2016-02-05_12:11:40 on domain   4:     .21787 elapsed seconds
Timing for main: time 2016-02-05_12:12:00 on domain   4:     .21283 elapsed seconds
Timing for main: time 2016-02-05_12:12:00 on domain   2:    1.66354 elapsed seconds
Timing for main: time 2016-02-05_12:12:00 on domain   1:    5.39138 elapsed seconds
Timing for main: time 2016-02-05_12:12:13 on domain   3:     .19236 elapsed seconds
Timing for main: time 2016-02-05_12:12:26 on domain   3:     .17895 elapsed seconds
Timing for main: time 2016-02-05_12:12:40 on domain   3:     .17879 elapsed seconds
Timing for main: time 2016-02-05_12:12:20 on domain   4:     .21777 elapsed seconds
Timing for main: time 2016-02-05_12:12:40 on domain   4:     .21304 elapsed seconds
Timing for main: time 2016-02-05_12:12:40 on domain   2:    1.67063 elapsed seconds
Timing for main: time 2016-02-05_12:12:53 on domain   3:     .19208 elapsed seconds
Timing for main: time 2016-02-05_12:13:06 on domain   3:     .18233 elapsed seconds
Timing for main: time 2016-02-05_12:13:20 on domain   3:     .17858 elapsed seconds
Timing for main: time 2016-02-05_12:13:00 on domain   4:     .21771 elapsed seconds
Timing for main: time 2016-02-05_12:13:20 on domain   4:     .21880 elapsed seconds
Timing for main: time 2016-02-05_12:13:20 on domain   2:    1.67044 elapsed seconds
Timing for main: time 2016-02-05_12:13:33 on domain   3:     .19370 elapsed seconds
Timing for main: time 2016-02-05_12:13:46 on domain   3:     .17887 elapsed seconds
Timing for main: time 2016-02-05_12:14:00 on domain   3:     .18130 elapsed seconds
Timing for main: time 2016-02-05_12:13:40 on domain   4:     .22138 elapsed seconds
Timing for main: time 2016-02-05_12:14:00 on domain   4:     .21379 elapsed seconds
Timing for main: time 2016-02-05_12:14:00 on domain   2:    1.67056 elapsed seconds
Timing for main: time 2016-02-05_12:14:00 on domain   1:    5.36918 elapsed seconds
Timing for main: time 2016-02-05_12:14:13 on domain   3:     .19202 elapsed seconds
Timing for main: time 2016-02-05_12:14:26 on domain   3:     .17913 elapsed seconds
Timing for main: time 2016-02-05_12:14:40 on domain   3:     .17986 elapsed seconds
Timing for main: time 2016-02-05_12:14:20 on domain   4:     .22048 elapsed seconds
Timing for main: time 2016-02-05_12:14:40 on domain   4:     .21320 elapsed seconds
Timing for main: time 2016-02-05_12:14:40 on domain   2:    1.67394 elapsed seconds
Timing for main: time 2016-02-05_12:14:53 on domain   3:     .19231 elapsed seconds
Timing for main: time 2016-02-05_12:15:06 on domain   3:     .17903 elapsed seconds
Timing for main: time 2016-02-05_12:15:20 on domain   3:     .18848 elapsed seconds
Timing for main: time 2016-02-05_12:15:00 on domain   4:     .22771 elapsed seconds
Timing for main: time 2016-02-05_12:15:20 on domain   4:     .21556 elapsed seconds
Timing for main: time 2016-02-05_12:15:20 on domain   2:    1.68467 elapsed seconds
Timing for main: time 2016-02-05_12:15:33 on domain   3:     .19253 elapsed seconds
Timing for main: time 2016-02-05_12:15:46 on domain   3:     .17966 elapsed seconds
Timing for main: time 2016-02-05_12:16:00 on domain   3:     .17947 elapsed seconds
Timing for main: time 2016-02-05_12:15:40 on domain   4:     .21509 elapsed seconds
Timing for main: time 2016-02-05_12:16:00 on domain   4:     .21369 elapsed seconds
Timing for main: time 2016-02-05_12:16:00 on domain   2:    1.67678 elapsed seconds
Timing for main: time 2016-02-05_12:16:00 on domain   1:    5.39300 elapsed seconds
Timing for main: time 2016-02-05_12:16:13 on domain   3:     .19230 elapsed seconds
Timing for main: time 2016-02-05_12:16:26 on domain   3:     .18138 elapsed seconds
Timing for main: time 2016-02-05_12:16:40 on domain   3:     .17976 elapsed seconds
Timing for main: time 2016-02-05_12:16:20 on domain   4:     .21792 elapsed seconds
Timing for main: time 2016-02-05_12:16:40 on domain   4:     .21432 elapsed seconds
Timing for main: time 2016-02-05_12:16:40 on domain   2:    1.67481 elapsed seconds
Timing for main: time 2016-02-05_12:16:53 on domain   3:     .19271 elapsed seconds
Timing for main: time 2016-02-05_12:17:06 on domain   3:     .17934 elapsed seconds
Timing for main: time 2016-02-05_12:17:20 on domain   3:     .17945 elapsed seconds
Timing for main: time 2016-02-05_12:17:00 on domain   4:     .21787 elapsed seconds
Timing for main: time 2016-02-05_12:17:20 on domain   4:     .21352 elapsed seconds
Timing for main: time 2016-02-05_12:17:20 on domain   2:    1.66581 elapsed seconds
Timing for main: time 2016-02-05_12:17:33 on domain   3:     .19373 elapsed seconds
Timing for main: time 2016-02-05_12:17:46 on domain   3:     .17933 elapsed seconds
Timing for main: time 2016-02-05_12:18:00 on domain   3:     .17968 elapsed seconds
Timing for main: time 2016-02-05_12:17:40 on domain   4:     .21767 elapsed seconds
Timing for main: time 2016-02-05_12:18:00 on domain   4:     .21348 elapsed seconds
Timing for main: time 2016-02-05_12:18:00 on domain   2:    1.66498 elapsed seconds
Timing for main: time 2016-02-05_12:18:00 on domain   1:    5.37188 elapsed seconds
Timing for main: time 2016-02-05_12:18:13 on domain   3:     .19534 elapsed seconds
Timing for main: time 2016-02-05_12:18:26 on domain   3:     .17898 elapsed seconds
Timing for main: time 2016-02-05_12:18:40 on domain   3:     .18001 elapsed seconds
Timing for main: time 2016-02-05_12:18:20 on domain   4:     .21773 elapsed seconds
Timing for main: time 2016-02-05_12:18:40 on domain   4:     .21410 elapsed seconds
Timing for main: time 2016-02-05_12:18:40 on domain   2:    1.67469 elapsed seconds
Timing for main: time 2016-02-05_12:18:53 on domain   3:     .19315 elapsed seconds
Timing for main: time 2016-02-05_12:19:06 on domain   3:     .17912 elapsed seconds
Timing for main: time 2016-02-05_12:19:20 on domain   3:     .18048 elapsed seconds
Timing for main: time 2016-02-05_12:19:00 on domain   4:     .21827 elapsed seconds
Timing for main: time 2016-02-05_12:19:20 on domain   4:     .21362 elapsed seconds
Timing for main: time 2016-02-05_12:19:20 on domain   2:    1.66687 elapsed seconds
Timing for main: time 2016-02-05_12:19:33 on domain   3:     .19003 elapsed seconds
Timing for main: time 2016-02-05_12:19:46 on domain   3:     .17907 elapsed seconds
Timing for main: time 2016-02-05_12:20:00 on domain   3:     .17926 elapsed seconds
Timing for main: time 2016-02-05_12:19:40 on domain   4:     .21791 elapsed seconds
Timing for main: time 2016-02-05_12:20:00 on domain   4:     .22321 elapsed seconds
Timing for main: time 2016-02-05_12:20:00 on domain   2:    1.67387 elapsed seconds
Timing for main: time 2016-02-05_12:20:00 on domain   1:    5.37353 elapsed seconds
Timing for main: time 2016-02-05_12:20:13 on domain   3:     .19242 elapsed seconds
Timing for main: time 2016-02-05_12:20:26 on domain   3:     .18785 elapsed seconds
Timing for main: time 2016-02-05_12:20:40 on domain   3:     .17892 elapsed seconds
Timing for main: time 2016-02-05_12:20:20 on domain   4:     .21777 elapsed seconds
Timing for main: time 2016-02-05_12:20:40 on domain   4:     .21326 elapsed seconds
Timing for main: time 2016-02-05_12:20:40 on domain   2:    1.67991 elapsed seconds
Timing for main: time 2016-02-05_12:20:53 on domain   3:     .19246 elapsed seconds
Timing for main: time 2016-02-05_12:21:06 on domain   3:     .18239 elapsed seconds
Timing for main: time 2016-02-05_12:21:20 on domain   3:     .18248 elapsed seconds
Timing for main: time 2016-02-05_12:21:00 on domain   4:     .21789 elapsed seconds
Timing for main: time 2016-02-05_12:21:20 on domain   4:     .21385 elapsed seconds
Timing for main: time 2016-02-05_12:21:20 on domain   2:    1.67765 elapsed seconds
Timing for main: time 2016-02-05_12:21:33 on domain   3:     .19239 elapsed seconds
Timing for main: time 2016-02-05_12:21:46 on domain   3:     .18368 elapsed seconds
Timing for main: time 2016-02-05_12:22:00 on domain   3:     .17907 elapsed seconds
Timing for main: time 2016-02-05_12:21:40 on domain   4:     .21777 elapsed seconds
Timing for main: time 2016-02-05_12:22:00 on domain   4:     .21360 elapsed seconds
Timing for main: time 2016-02-05_12:22:00 on domain   2:    1.66799 elapsed seconds
Timing for main: time 2016-02-05_12:22:00 on domain   1:    5.38344 elapsed seconds
Timing for main: time 2016-02-05_12:22:13 on domain   3:     .19259 elapsed seconds
Timing for main: time 2016-02-05_12:22:26 on domain   3:     .17888 elapsed seconds
Timing for main: time 2016-02-05_12:22:40 on domain   3:     .17967 elapsed seconds
Timing for main: time 2016-02-05_12:22:20 on domain   4:     .21833 elapsed seconds
Timing for main: time 2016-02-05_12:22:40 on domain   4:     .21451 elapsed seconds
Timing for main: time 2016-02-05_12:22:40 on domain   2:    1.67315 elapsed seconds
Timing for main: time 2016-02-05_12:22:53 on domain   3:     .19326 elapsed seconds
Timing for main: time 2016-02-05_12:23:06 on domain   3:     .17890 elapsed seconds
Timing for main: time 2016-02-05_12:23:20 on domain   3:     .18003 elapsed seconds
Timing for main: time 2016-02-05_12:23:00 on domain   4:     .21820 elapsed seconds
Timing for main: time 2016-02-05_12:23:20 on domain   4:     .21355 elapsed seconds
Timing for main: time 2016-02-05_12:23:20 on domain   2:    1.66531 elapsed seconds
Timing for main: time 2016-02-05_12:23:33 on domain   3:     .19268 elapsed seconds
Timing for main: time 2016-02-05_12:23:46 on domain   3:     .17907 elapsed seconds
Timing for main: time 2016-02-05_12:24:00 on domain   3:     .17932 elapsed seconds
Timing for main: time 2016-02-05_12:23:40 on domain   4:     .21819 elapsed seconds
Timing for main: time 2016-02-05_12:24:00 on domain   4:     .21302 elapsed seconds
Timing for main: time 2016-02-05_12:24:00 on domain   2:    1.66325 elapsed seconds
Timing for main: time 2016-02-05_12:24:00 on domain   1:    5.36945 elapsed seconds
Timing for main: time 2016-02-05_12:24:13 on domain   3:     .19253 elapsed seconds
Timing for main: time 2016-02-05_12:24:26 on domain   3:     .17940 elapsed seconds
Timing for main: time 2016-02-05_12:24:40 on domain   3:     .18246 elapsed seconds
Timing for main: time 2016-02-05_12:24:20 on domain   4:     .22155 elapsed seconds
Timing for main: time 2016-02-05_12:24:40 on domain   4:     .21339 elapsed seconds
Timing for main: time 2016-02-05_12:24:40 on domain   2:    1.67534 elapsed seconds
Timing for main: time 2016-02-05_12:24:53 on domain   3:     .19250 elapsed seconds
Timing for main: time 2016-02-05_12:25:06 on domain   3:     .18292 elapsed seconds
Timing for main: time 2016-02-05_12:25:20 on domain   3:     .18106 elapsed seconds
Timing for main: time 2016-02-05_12:25:00 on domain   4:     .22738 elapsed seconds
Timing for main: time 2016-02-05_12:25:20 on domain   4:     .21353 elapsed seconds
Timing for main: time 2016-02-05_12:25:20 on domain   2:    1.67914 elapsed seconds
Timing for main: time 2016-02-05_12:25:33 on domain   3:     .20090 elapsed seconds
Timing for main: time 2016-02-05_12:25:46 on domain   3:     .17970 elapsed seconds
Timing for main: time 2016-02-05_12:26:00 on domain   3:     .17889 elapsed seconds
Timing for main: time 2016-02-05_12:25:40 on domain   4:     .21774 elapsed seconds
Timing for main: time 2016-02-05_12:26:00 on domain   4:     .21294 elapsed seconds
Timing for main: time 2016-02-05_12:26:00 on domain   2:    1.67196 elapsed seconds
Timing for main: time 2016-02-05_12:26:00 on domain   1:    5.38412 elapsed seconds
Timing for main: time 2016-02-05_12:26:13 on domain   3:     .19231 elapsed seconds
Timing for main: time 2016-02-05_12:26:26 on domain   3:     .25544 elapsed seconds
Timing for main: time 2016-02-05_12:26:40 on domain   3:     .18911 elapsed seconds
Timing for main: time 2016-02-05_12:26:20 on domain   4:     .21834 elapsed seconds
Timing for main: time 2016-02-05_12:26:40 on domain   4:     .21327 elapsed seconds
Timing for main: time 2016-02-05_12:26:40 on domain   2:    1.76808 elapsed seconds
Timing for main: time 2016-02-05_12:26:53 on domain   3:     .19262 elapsed seconds
Timing for main: time 2016-02-05_12:27:06 on domain   3:     .17883 elapsed seconds
Timing for main: time 2016-02-05_12:27:20 on domain   3:     .17935 elapsed seconds
Timing for main: time 2016-02-05_12:27:00 on domain   4:     .21761 elapsed seconds
Timing for main: time 2016-02-05_12:27:20 on domain   4:     .21346 elapsed seconds
Timing for main: time 2016-02-05_12:27:20 on domain   2:    1.66376 elapsed seconds
Timing for main: time 2016-02-05_12:27:33 on domain   3:     .19240 elapsed seconds
Timing for main: time 2016-02-05_12:27:46 on domain   3:     .17941 elapsed seconds
Timing for main: time 2016-02-05_12:28:00 on domain   3:     .17941 elapsed seconds
Timing for main: time 2016-02-05_12:27:40 on domain   4:     .21782 elapsed seconds
Timing for main: time 2016-02-05_12:28:00 on domain   4:     .21328 elapsed seconds
Timing for main: time 2016-02-05_12:28:00 on domain   2:    1.66373 elapsed seconds
Timing for main: time 2016-02-05_12:28:00 on domain   1:    5.45301 elapsed seconds
  photolysis_driver: called for domain  1
Timing for main: time 2016-02-05_12:28:13 on domain   3:     .21427 elapsed seconds
Timing for main: time 2016-02-05_12:28:26 on domain   3:     .25305 elapsed seconds
Timing for main: time 2016-02-05_12:28:40 on domain   3:     .18703 elapsed seconds
Timing for main: time 2016-02-05_12:28:20 on domain   4:     .21756 elapsed seconds
Timing for main: time 2016-02-05_12:28:40 on domain   4:     .21335 elapsed seconds
Timing for main: time 2016-02-05_12:28:40 on domain   2:    1.77753 elapsed seconds
Timing for main: time 2016-02-05_12:28:53 on domain   3:     .19249 elapsed seconds
Timing for main: time 2016-02-05_12:29:06 on domain   3:     .17893 elapsed seconds
Timing for main: time 2016-02-05_12:29:20 on domain   3:     .17940 elapsed seconds
Timing for main: time 2016-02-05_12:29:00 on domain   4:     .21756 elapsed seconds
Timing for main: time 2016-02-05_12:29:20 on domain   4:     .21330 elapsed seconds
Timing for main: time 2016-02-05_12:29:20 on domain   2:    1.66521 elapsed seconds
  photolysis_driver: called for domain  2
Timing for main: time 2016-02-05_12:29:33 on domain   3:     .19350 elapsed seconds
Timing for main: time 2016-02-05_12:29:46 on domain   3:     .17961 elapsed seconds
  photolysis_driver: called for domain  3
Timing for main: time 2016-02-05_12:30:00 on domain   3:    1.04548 elapsed seconds
Timing for main: time 2016-02-05_12:29:40 on domain   4:     .21756 elapsed seconds
  photolysis_driver: called for domain  4
Timing for main: time 2016-02-05_12:30:00 on domain   4:    1.23938 elapsed seconds
Timing for main: time 2016-02-05_12:30:00 on domain   2:    4.64779 elapsed seconds
Timing for main: time 2016-02-05_12:30:00 on domain   1:    9.13846 elapsed seconds
Timing for main: time 2016-02-05_12:30:13 on domain   3:     .36246 elapsed seconds
Timing for main: time 2016-02-05_12:30:26 on domain   3:     .17971 elapsed seconds
Timing for main: time 2016-02-05_12:30:40 on domain   3:     .18623 elapsed seconds
Timing for main: time 2016-02-05_12:30:20 on domain   4:     .41813 elapsed seconds
Timing for main: time 2016-02-05_12:30:40 on domain   4:     .21300 elapsed seconds
Timing for main: time 2016-02-05_12:30:40 on domain   2:    2.26295 elapsed seconds
Timing for main: time 2016-02-05_12:30:53 on domain   3:     .19820 elapsed seconds
Timing for main: time 2016-02-05_12:31:06 on domain   3:     .25342 elapsed seconds
Timing for main: time 2016-02-05_12:31:20 on domain   3:     .18571 elapsed seconds
Timing for main: time 2016-02-05_12:31:00 on domain   4:     .21608 elapsed seconds
Timing for main: time 2016-02-05_12:31:20 on domain   4:     .21259 elapsed seconds
Timing for main: time 2016-02-05_12:31:20 on domain   2:    1.74838 elapsed seconds
Timing for main: time 2016-02-05_12:31:33 on domain   3:     .19152 elapsed seconds
Timing for main: time 2016-02-05_12:31:46 on domain   3:     .17860 elapsed seconds
Timing for main: time 2016-02-05_12:32:00 on domain   3:     .17795 elapsed seconds
Timing for main: time 2016-02-05_12:31:40 on domain   4:     .21649 elapsed seconds
Timing for main: time 2016-02-05_12:32:00 on domain   4:     .21263 elapsed seconds
Timing for main: time 2016-02-05_12:32:00 on domain   2:    1.66839 elapsed seconds
Timing for main: time 2016-02-05_12:32:00 on domain   1:    6.19703 elapsed seconds
Timing for main: time 2016-02-05_12:32:13 on domain   3:     .19159 elapsed seconds
Timing for main: time 2016-02-05_12:32:26 on domain   3:     .17858 elapsed seconds
Timing for main: time 2016-02-05_12:32:40 on domain   3:     .17762 elapsed seconds
Timing for main: time 2016-02-05_12:32:20 on domain   4:     .21839 elapsed seconds
Timing for main: time 2016-02-05_12:32:40 on domain   4:     .21045 elapsed seconds
Timing for main: time 2016-02-05_12:32:40 on domain   2:    1.66540 elapsed seconds
Timing for main: time 2016-02-05_12:32:53 on domain   3:     .19124 elapsed seconds
Timing for main: time 2016-02-05_12:33:06 on domain   3:     .17830 elapsed seconds
Timing for main: time 2016-02-05_12:33:20 on domain   3:     .17831 elapsed seconds
Timing for main: time 2016-02-05_12:33:00 on domain   4:     .21636 elapsed seconds
Timing for main: time 2016-02-05_12:33:20 on domain   4:     .21310 elapsed seconds
Timing for main: time 2016-02-05_12:33:20 on domain   2:    1.65853 elapsed seconds
Timing for main: time 2016-02-05_12:33:33 on domain   3:     .19164 elapsed seconds
Timing for main: time 2016-02-05_12:33:46 on domain   3:     .17803 elapsed seconds
Timing for main: time 2016-02-05_12:34:00 on domain   3:     .17788 elapsed seconds
Timing for main: time 2016-02-05_12:33:40 on domain   4:     .21646 elapsed seconds
Timing for main: time 2016-02-05_12:34:00 on domain   4:     .21653 elapsed seconds
Timing for main: time 2016-02-05_12:34:00 on domain   2:    1.66184 elapsed seconds
Timing for main: time 2016-02-05_12:34:00 on domain   1:    5.34363 elapsed seconds
Timing for main: time 2016-02-05_12:34:13 on domain   3:     .19177 elapsed seconds
Timing for main: time 2016-02-05_12:34:26 on domain   3:     .17827 elapsed seconds
Timing for main: time 2016-02-05_12:34:40 on domain   3:     .18003 elapsed seconds
Timing for main: time 2016-02-05_12:34:20 on domain   4:     .21596 elapsed seconds
Timing for main: time 2016-02-05_12:34:40 on domain   4:     .21219 elapsed seconds
Timing for main: time 2016-02-05_12:34:40 on domain   2:    1.66747 elapsed seconds
Timing for main: time 2016-02-05_12:34:53 on domain   3:     .19129 elapsed seconds
Timing for main: time 2016-02-05_12:35:06 on domain   3:     .17886 elapsed seconds
Timing for main: time 2016-02-05_12:35:20 on domain   3:     .17850 elapsed seconds
Timing for main: time 2016-02-05_12:35:00 on domain   4:     .22587 elapsed seconds
Timing for main: time 2016-02-05_12:35:20 on domain   4:     .21190 elapsed seconds
Timing for main: time 2016-02-05_12:35:20 on domain   2:    1.66833 elapsed seconds
Timing for main: time 2016-02-05_12:35:33 on domain   3:     .19166 elapsed seconds
Timing for main: time 2016-02-05_12:35:46 on domain   3:     .18585 elapsed seconds
Timing for main: time 2016-02-05_12:36:00 on domain   3:     .17873 elapsed seconds
Timing for main: time 2016-02-05_12:35:40 on domain   4:     .21801 elapsed seconds
Timing for main: time 2016-02-05_12:36:00 on domain   4:     .21532 elapsed seconds
Timing for main: time 2016-02-05_12:36:00 on domain   2:    1.67176 elapsed seconds
Timing for main: time 2016-02-05_12:36:00 on domain   1:    5.37174 elapsed seconds
Timing for main: time 2016-02-05_12:36:13 on domain   3:     .19113 elapsed seconds
Timing for main: time 2016-02-05_12:36:26 on domain   3:     .17928 elapsed seconds
Timing for main: time 2016-02-05_12:36:40 on domain   3:     .17908 elapsed seconds
Timing for main: time 2016-02-05_12:36:20 on domain   4:     .21625 elapsed seconds
Timing for main: time 2016-02-05_12:36:40 on domain   4:     .21243 elapsed seconds
Timing for main: time 2016-02-05_12:36:40 on domain   2:    1.66691 elapsed seconds
Timing for main: time 2016-02-05_12:36:53 on domain   3:     .18733 elapsed seconds
Timing for main: time 2016-02-05_12:37:06 on domain   3:     .18074 elapsed seconds
Timing for main: time 2016-02-05_12:37:20 on domain   3:     .21554 elapsed seconds
Timing for main: time 2016-02-05_12:37:00 on domain   4:     .21601 elapsed seconds
Timing for main: time 2016-02-05_12:37:20 on domain   4:     .21222 elapsed seconds
Timing for main: time 2016-02-05_12:37:20 on domain   2:    1.70315 elapsed seconds
Timing for main: time 2016-02-05_12:37:33 on domain   3:     .19150 elapsed seconds
Timing for main: time 2016-02-05_12:37:46 on domain   3:     .17869 elapsed seconds
Timing for main: time 2016-02-05_12:38:00 on domain   3:     .17814 elapsed seconds
Timing for main: time 2016-02-05_12:37:40 on domain   4:     .21664 elapsed seconds
Timing for main: time 2016-02-05_12:38:00 on domain   4:     .21269 elapsed seconds
Timing for main: time 2016-02-05_12:38:00 on domain   2:    1.65953 elapsed seconds
Timing for main: time 2016-02-05_12:38:00 on domain   1:    5.38991 elapsed seconds
Timing for main: time 2016-02-05_12:38:13 on domain   3:     .19137 elapsed seconds
Timing for main: time 2016-02-05_12:38:26 on domain   3:     .17902 elapsed seconds
Timing for main: time 2016-02-05_12:38:40 on domain   3:     .25000 elapsed seconds
Timing for main: time 2016-02-05_12:38:20 on domain   4:     .21656 elapsed seconds
Timing for main: time 2016-02-05_12:38:40 on domain   4:     .21549 elapsed seconds
Timing for main: time 2016-02-05_12:38:40 on domain   2:    1.74568 elapsed seconds
Timing for main: time 2016-02-05_12:38:53 on domain   3:     .19129 elapsed seconds
Timing for main: time 2016-02-05_12:39:06 on domain   3:     .17895 elapsed seconds
Timing for main: time 2016-02-05_12:39:20 on domain   3:     .17833 elapsed seconds
Timing for main: time 2016-02-05_12:39:00 on domain   4:     .21652 elapsed seconds
Timing for main: time 2016-02-05_12:39:20 on domain   4:     .21226 elapsed seconds
Timing for main: time 2016-02-05_12:39:20 on domain   2:    1.65962 elapsed seconds
Timing for main: time 2016-02-05_12:39:33 on domain   3:     .19128 elapsed seconds
Timing for main: time 2016-02-05_12:39:46 on domain   3:     .17820 elapsed seconds
Timing for main: time 2016-02-05_12:40:00 on domain   3:     .19373 elapsed seconds
Timing for main: time 2016-02-05_12:39:40 on domain   4:     .24138 elapsed seconds
Timing for main: time 2016-02-05_12:40:00 on domain   4:     .22271 elapsed seconds
Timing for main: time 2016-02-05_12:40:00 on domain   2:    1.70945 elapsed seconds
Timing for main: time 2016-02-05_12:40:00 on domain   1:    5.47292 elapsed seconds
Timing for main: time 2016-02-05_12:40:13 on domain   3:     .19108 elapsed seconds
Timing for main: time 2016-02-05_12:40:26 on domain   3:     .17881 elapsed seconds
Timing for main: time 2016-02-05_12:40:40 on domain   3:     .17843 elapsed seconds
Timing for main: time 2016-02-05_12:40:20 on domain   4:     .21624 elapsed seconds
Timing for main: time 2016-02-05_12:40:40 on domain   4:     .21475 elapsed seconds
Timing for main: time 2016-02-05_12:40:40 on domain   2:    1.66841 elapsed seconds
Timing for main: time 2016-02-05_12:40:53 on domain   3:     .19912 elapsed seconds
Timing for main: time 2016-02-05_12:41:06 on domain   3:     .17857 elapsed seconds
Timing for main: time 2016-02-05_12:41:20 on domain   3:     .17840 elapsed seconds
Timing for main: time 2016-02-05_12:41:00 on domain   4:     .21661 elapsed seconds
Timing for main: time 2016-02-05_12:41:20 on domain   4:     .21241 elapsed seconds
Timing for main: time 2016-02-05_12:41:20 on domain   2:    1.66726 elapsed seconds
Timing for main: time 2016-02-05_12:41:33 on domain   3:     .19343 elapsed seconds
Timing for main: time 2016-02-05_12:41:46 on domain   3:     .17808 elapsed seconds
Timing for main: time 2016-02-05_12:42:00 on domain   3:     .18319 elapsed seconds
Timing for main: time 2016-02-05_12:41:40 on domain   4:     .21664 elapsed seconds
Timing for main: time 2016-02-05_12:42:00 on domain   4:     .21281 elapsed seconds
Timing for main: time 2016-02-05_12:42:00 on domain   2:    1.66505 elapsed seconds
Timing for main: time 2016-02-05_12:42:00 on domain   1:    5.36497 elapsed seconds
Timing for main: time 2016-02-05_12:42:13 on domain   3:     .19190 elapsed seconds
Timing for main: time 2016-02-05_12:42:26 on domain   3:     .17891 elapsed seconds
Timing for main: time 2016-02-05_12:42:40 on domain   3:     .17827 elapsed seconds
Timing for main: time 2016-02-05_12:42:20 on domain   4:     .21724 elapsed seconds
Timing for main: time 2016-02-05_12:42:40 on domain   4:     .21260 elapsed seconds
Timing for main: time 2016-02-05_12:42:40 on domain   2:    1.67838 elapsed seconds
Timing for main: time 2016-02-05_12:42:53 on domain   3:     .19157 elapsed seconds
Timing for main: time 2016-02-05_12:43:06 on domain   3:     .17834 elapsed seconds
Timing for main: time 2016-02-05_12:43:20 on domain   3:     .17865 elapsed seconds
Timing for main: time 2016-02-05_12:43:00 on domain   4:     .21831 elapsed seconds
Timing for main: time 2016-02-05_12:43:20 on domain   4:     .21304 elapsed seconds
Timing for main: time 2016-02-05_12:43:20 on domain   2:    1.66253 elapsed seconds
Timing for main: time 2016-02-05_12:43:33 on domain   3:     .19107 elapsed seconds
Timing for main: time 2016-02-05_12:43:46 on domain   3:     .17810 elapsed seconds
Timing for main: time 2016-02-05_12:44:00 on domain   3:     .17860 elapsed seconds
Timing for main: time 2016-02-05_12:43:40 on domain   4:     .21529 elapsed seconds
Timing for main: time 2016-02-05_12:44:00 on domain   4:     .21236 elapsed seconds
Timing for main: time 2016-02-05_12:44:00 on domain   2:    1.66294 elapsed seconds
Timing for main: time 2016-02-05_12:44:00 on domain   1:    5.36265 elapsed seconds
Timing for main: time 2016-02-05_12:44:13 on domain   3:     .19115 elapsed seconds
Timing for main: time 2016-02-05_12:44:26 on domain   3:     .17833 elapsed seconds
Timing for main: time 2016-02-05_12:44:40 on domain   3:     .17910 elapsed seconds
Timing for main: time 2016-02-05_12:44:20 on domain   4:     .21732 elapsed seconds
Timing for main: time 2016-02-05_12:44:40 on domain   4:     .21259 elapsed seconds
Timing for main: time 2016-02-05_12:44:40 on domain   2:    1.66825 elapsed seconds
Timing for main: time 2016-02-05_12:44:53 on domain   3:     .19072 elapsed seconds
Timing for main: time 2016-02-05_12:45:06 on domain   3:     .17849 elapsed seconds
Timing for main: time 2016-02-05_12:45:20 on domain   3:     .18199 elapsed seconds
Timing for main: time 2016-02-05_12:45:00 on domain   4:     .22647 elapsed seconds
Timing for main: time 2016-02-05_12:45:20 on domain   4:     .21251 elapsed seconds
Timing for main: time 2016-02-05_12:45:20 on domain   2:    1.67230 elapsed seconds
Timing for main: time 2016-02-05_12:45:33 on domain   3:     .19137 elapsed seconds
Timing for main: time 2016-02-05_12:45:46 on domain   3:     .18430 elapsed seconds
Timing for main: time 2016-02-05_12:46:00 on domain   3:     .18959 elapsed seconds
Timing for main: time 2016-02-05_12:45:40 on domain   4:     .21647 elapsed seconds
Timing for main: time 2016-02-05_12:46:00 on domain   4:     .21218 elapsed seconds
Timing for main: time 2016-02-05_12:46:00 on domain   2:    1.67863 elapsed seconds
Timing for main: time 2016-02-05_12:46:00 on domain   1:    5.37695 elapsed seconds
Timing for main: time 2016-02-05_12:46:13 on domain   3:     .19522 elapsed seconds
Timing for main: time 2016-02-05_12:46:26 on domain   3:     .17868 elapsed seconds
Timing for main: time 2016-02-05_12:46:40 on domain   3:     .17835 elapsed seconds
Timing for main: time 2016-02-05_12:46:20 on domain   4:     .21631 elapsed seconds
Timing for main: time 2016-02-05_12:46:40 on domain   4:     .21291 elapsed seconds
Timing for main: time 2016-02-05_12:46:40 on domain   2:    1.67170 elapsed seconds
Timing for main: time 2016-02-05_12:46:53 on domain   3:     .19107 elapsed seconds
Timing for main: time 2016-02-05_12:47:06 on domain   3:     .18427 elapsed seconds
Timing for main: time 2016-02-05_12:47:20 on domain   3:     .17828 elapsed seconds
Timing for main: time 2016-02-05_12:47:00 on domain   4:     .21857 elapsed seconds
Timing for main: time 2016-02-05_12:47:20 on domain   4:     .21222 elapsed seconds
Timing for main: time 2016-02-05_12:47:20 on domain   2:    1.66829 elapsed seconds
Timing for main: time 2016-02-05_12:47:33 on domain   3:     .18856 elapsed seconds
Timing for main: time 2016-02-05_12:47:46 on domain   3:     .17851 elapsed seconds
Timing for main: time 2016-02-05_12:48:00 on domain   3:     .17850 elapsed seconds
Timing for main: time 2016-02-05_12:47:40 on domain   4:     .21659 elapsed seconds
Timing for main: time 2016-02-05_12:48:00 on domain   4:     .21252 elapsed seconds
Timing for main: time 2016-02-05_12:48:00 on domain   2:    1.67056 elapsed seconds
Timing for main: time 2016-02-05_12:48:00 on domain   1:    5.37541 elapsed seconds
Timing for main: time 2016-02-05_12:48:13 on domain   3:     .19110 elapsed seconds
Timing for main: time 2016-02-05_12:48:26 on domain   3:     .17825 elapsed seconds
Timing for main: time 2016-02-05_12:48:40 on domain   3:     .17853 elapsed seconds
Timing for main: time 2016-02-05_12:48:20 on domain   4:     .21669 elapsed seconds
Timing for main: time 2016-02-05_12:48:40 on domain   4:     .21222 elapsed seconds
Timing for main: time 2016-02-05_12:48:40 on domain   2:    1.66653 elapsed seconds
Timing for main: time 2016-02-05_12:48:53 on domain   3:     .19175 elapsed seconds
Timing for main: time 2016-02-05_12:49:06 on domain   3:     .18057 elapsed seconds
Timing for main: time 2016-02-05_12:49:20 on domain   3:     .17862 elapsed seconds
Timing for main: time 2016-02-05_12:49:00 on domain   4:     .21691 elapsed seconds
Timing for main: time 2016-02-05_12:49:20 on domain   4:     .21185 elapsed seconds
Timing for main: time 2016-02-05_12:49:20 on domain   2:    1.66218 elapsed seconds
Timing for main: time 2016-02-05_12:49:33 on domain   3:     .19100 elapsed seconds
Timing for main: time 2016-02-05_12:49:46 on domain   3:     .17840 elapsed seconds
Timing for main: time 2016-02-05_12:50:00 on domain   3:     .18024 elapsed seconds
Timing for main: time 2016-02-05_12:49:40 on domain   4:     .21630 elapsed seconds
Timing for main: time 2016-02-05_12:50:00 on domain   4:     .22198 elapsed seconds
Timing for main: time 2016-02-05_12:50:00 on domain   2:    1.67073 elapsed seconds
Timing for main: time 2016-02-05_12:50:00 on domain   1:    5.36764 elapsed seconds
Timing for main: time 2016-02-05_12:50:13 on domain   3:     .19139 elapsed seconds
Timing for main: time 2016-02-05_12:50:26 on domain   3:     .17854 elapsed seconds
Timing for main: time 2016-02-05_12:50:40 on domain   3:     .17857 elapsed seconds
Timing for main: time 2016-02-05_12:50:20 on domain   4:     .21670 elapsed seconds
Timing for main: time 2016-02-05_12:50:40 on domain   4:     .21216 elapsed seconds
Timing for main: time 2016-02-05_12:50:40 on domain   2:    1.66727 elapsed seconds
Timing for main: time 2016-02-05_12:50:53 on domain   3:     .19105 elapsed seconds
Timing for main: time 2016-02-05_12:51:06 on domain   3:     .18630 elapsed seconds
Timing for main: time 2016-02-05_12:51:20 on domain   3:     .17829 elapsed seconds
Timing for main: time 2016-02-05_12:51:00 on domain   4:     .21688 elapsed seconds
Timing for main: time 2016-02-05_12:51:20 on domain   4:     .21225 elapsed seconds
Timing for main: time 2016-02-05_12:51:20 on domain   2:    1.66947 elapsed seconds
Timing for main: time 2016-02-05_12:51:33 on domain   3:     .19129 elapsed seconds
Timing for main: time 2016-02-05_12:51:46 on domain   3:     .17849 elapsed seconds
Timing for main: time 2016-02-05_12:52:00 on domain   3:     .17877 elapsed seconds
Timing for main: time 2016-02-05_12:51:40 on domain   4:     .21737 elapsed seconds
Timing for main: time 2016-02-05_12:52:00 on domain   4:     .21275 elapsed seconds
Timing for main: time 2016-02-05_12:52:00 on domain   2:    1.66104 elapsed seconds
Timing for main: time 2016-02-05_12:52:00 on domain   1:    5.35558 elapsed seconds
Timing for main: time 2016-02-05_12:52:13 on domain   3:     .19112 elapsed seconds
Timing for main: time 2016-02-05_12:52:26 on domain   3:     .17842 elapsed seconds
Timing for main: time 2016-02-05_12:52:40 on domain   3:     .17848 elapsed seconds
Timing for main: time 2016-02-05_12:52:20 on domain   4:     .21826 elapsed seconds
Timing for main: time 2016-02-05_12:52:40 on domain   4:     .21302 elapsed seconds
Timing for main: time 2016-02-05_12:52:40 on domain   2:    1.66981 elapsed seconds
Timing for main: time 2016-02-05_12:52:53 on domain   3:     .19159 elapsed seconds
Timing for main: time 2016-02-05_12:53:06 on domain   3:     .17859 elapsed seconds
Timing for main: time 2016-02-05_12:53:20 on domain   3:     .18062 elapsed seconds
Timing for main: time 2016-02-05_12:53:00 on domain   4:     .21699 elapsed seconds
Timing for main: time 2016-02-05_12:53:20 on domain   4:     .21223 elapsed seconds
Timing for main: time 2016-02-05_12:53:20 on domain   2:    1.67315 elapsed seconds
Timing for main: time 2016-02-05_12:53:33 on domain   3:     .19085 elapsed seconds
Timing for main: time 2016-02-05_12:53:46 on domain   3:     .17852 elapsed seconds
Timing for main: time 2016-02-05_12:54:00 on domain   3:     .17886 elapsed seconds
Timing for main: time 2016-02-05_12:53:40 on domain   4:     .21692 elapsed seconds
Timing for main: time 2016-02-05_12:54:00 on domain   4:     .21277 elapsed seconds
Timing for main: time 2016-02-05_12:54:00 on domain   2:    1.66208 elapsed seconds
Timing for main: time 2016-02-05_12:54:00 on domain   1:    5.37564 elapsed seconds
Timing for main: time 2016-02-05_12:54:13 on domain   3:     .19106 elapsed seconds
Timing for main: time 2016-02-05_12:54:26 on domain   3:     .17989 elapsed seconds
Timing for main: time 2016-02-05_12:54:40 on domain   3:     .17869 elapsed seconds
Timing for main: time 2016-02-05_12:54:20 on domain   4:     .21797 elapsed seconds
Timing for main: time 2016-02-05_12:54:40 on domain   4:     .21249 elapsed seconds
Timing for main: time 2016-02-05_12:54:40 on domain   2:    1.67053 elapsed seconds
Timing for main: time 2016-02-05_12:54:53 on domain   3:     .19186 elapsed seconds
Timing for main: time 2016-02-05_12:55:06 on domain   3:     .17992 elapsed seconds
Timing for main: time 2016-02-05_12:55:20 on domain   3:     .17905 elapsed seconds
Timing for main: time 2016-02-05_12:55:00 on domain   4:     .22630 elapsed seconds
Timing for main: time 2016-02-05_12:55:20 on domain   4:     .21278 elapsed seconds
Timing for main: time 2016-02-05_12:55:20 on domain   2:    1.67163 elapsed seconds
Timing for main: time 2016-02-05_12:55:33 on domain   3:     .19064 elapsed seconds
Timing for main: time 2016-02-05_12:55:46 on domain   3:     .17853 elapsed seconds
Timing for main: time 2016-02-05_12:56:00 on domain   3:     .17854 elapsed seconds
Timing for main: time 2016-02-05_12:55:40 on domain   4:     .21706 elapsed seconds
Timing for main: time 2016-02-05_12:56:00 on domain   4:     .21268 elapsed seconds
Timing for main: time 2016-02-05_12:56:00 on domain   2:    1.65951 elapsed seconds
Timing for main: time 2016-02-05_12:56:00 on domain   1:    5.35863 elapsed seconds
Timing for main: time 2016-02-05_12:56:13 on domain   3:     .19935 elapsed seconds
Timing for main: time 2016-02-05_12:56:26 on domain   3:     .18093 elapsed seconds
Timing for main: time 2016-02-05_12:56:40 on domain   3:     .17973 elapsed seconds
Timing for main: time 2016-02-05_12:56:20 on domain   4:     .21708 elapsed seconds
Timing for main: time 2016-02-05_12:56:40 on domain   4:     .21291 elapsed seconds
Timing for main: time 2016-02-05_12:56:40 on domain   2:    1.67992 elapsed seconds
Timing for main: time 2016-02-05_12:56:53 on domain   3:     .19134 elapsed seconds
Timing for main: time 2016-02-05_12:57:06 on domain   3:     .17850 elapsed seconds
Timing for main: time 2016-02-05_12:57:20 on domain   3:     .17894 elapsed seconds
Timing for main: time 2016-02-05_12:57:00 on domain   4:     .21795 elapsed seconds
Timing for main: time 2016-02-05_12:57:20 on domain   4:     .21319 elapsed seconds
Timing for main: time 2016-02-05_12:57:20 on domain   2:    1.66240 elapsed seconds
Timing for main: time 2016-02-05_12:57:33 on domain   3:     .19102 elapsed seconds
Timing for main: time 2016-02-05_12:57:46 on domain   3:     .17893 elapsed seconds
Timing for main: time 2016-02-05_12:58:00 on domain   3:     .17838 elapsed seconds
Timing for main: time 2016-02-05_12:57:40 on domain   4:     .21738 elapsed seconds
Timing for main: time 2016-02-05_12:58:00 on domain   4:     .21297 elapsed seconds
Timing for main: time 2016-02-05_12:58:00 on domain   2:    1.66087 elapsed seconds
Timing for main: time 2016-02-05_12:58:00 on domain   1:    5.36096 elapsed seconds
  photolysis_driver: called for domain  1
Timing for main: time 2016-02-05_12:58:13 on domain   3:     .19141 elapsed seconds
Timing for main: time 2016-02-05_12:58:26 on domain   3:     .17861 elapsed seconds
Timing for main: time 2016-02-05_12:58:40 on domain   3:     .17968 elapsed seconds
Timing for main: time 2016-02-05_12:58:20 on domain   4:     .21682 elapsed seconds
Timing for main: time 2016-02-05_12:58:40 on domain   4:     .21227 elapsed seconds
Timing for main: time 2016-02-05_12:58:40 on domain   2:    1.67909 elapsed seconds
Timing for main: time 2016-02-05_12:58:53 on domain   3:     .19164 elapsed seconds
Timing for main: time 2016-02-05_12:59:06 on domain   3:     .18346 elapsed seconds
Timing for main: time 2016-02-05_12:59:20 on domain   3:     .18152 elapsed seconds
Timing for main: time 2016-02-05_12:59:00 on domain   4:     .21732 elapsed seconds
Timing for main: time 2016-02-05_12:59:20 on domain   4:     .21295 elapsed seconds
Timing for main: time 2016-02-05_12:59:20 on domain   2:    1.66862 elapsed seconds
  photolysis_driver: called for domain  2
Timing for main: time 2016-02-05_12:59:33 on domain   3:     .19088 elapsed seconds
Timing for main: time 2016-02-05_12:59:46 on domain   3:     .17880 elapsed seconds
  photolysis_driver: called for domain  3
Timing for main: time 2016-02-05_13:00:00 on domain   3:    1.04258 elapsed seconds
Timing for main: time 2016-02-05_12:59:40 on domain   4:     .21782 elapsed seconds
  photolysis_driver: called for domain  4
Timing for main: time 2016-02-05_13:00:00 on domain   4:    1.23849 elapsed seconds
Timing for main: time 2016-02-05_13:00:00 on domain   2:    4.64592 elapsed seconds
Timing for main: time 2016-02-05_13:00:00 on domain   1:    9.03835 elapsed seconds
Timing for Writing wrfout_d01_2016-02-05_13:00:00 for domain        1:    1.41628 elapsed seconds
  HOURLY EMISSIONS UPDATE TIME     3600.0        .0
 mediation_integrate: med_read_wrf_chem_emissions: Read emissions for time 2016-02-05_13:00:00
 **WARNING** Time in input file not being checked **WARNING**
Timing for Writing wrfout_d02_2016-02-05_13:00:00 for domain        2:    2.02229 elapsed seconds
Timing for Writing wrfout_d03_2016-02-05_13:00:00 for domain        3:    2.21679 elapsed seconds
Timing for main: time 2016-02-05_13:00:13 on domain   3:    2.62547 elapsed seconds
Timing for main: time 2016-02-05_13:00:26 on domain   3:     .19611 elapsed seconds
Timing for main: time 2016-02-05_13:00:40 on domain   3:     .19192 elapsed seconds
Timing for Writing wrfout_d04_2016-02-05_13:00:00 for domain        4:    2.00577 elapsed seconds
Timing for main: time 2016-02-05_13:00:20 on domain   4:    2.50281 elapsed seconds
Timing for main: time 2016-02-05_13:00:40 on domain   4:     .24693 elapsed seconds
Timing for main: time 2016-02-05_13:00:40 on domain   2:    8.75645 elapsed seconds
Timing for main: time 2016-02-05_13:00:53 on domain   3:     .19139 elapsed seconds
Timing for main: time 2016-02-05_13:01:06 on domain   3:     .17875 elapsed seconds
Timing for main: time 2016-02-05_13:01:20 on domain   3:     .18687 elapsed seconds
Timing for main: time 2016-02-05_13:01:00 on domain   4:     .21708 elapsed seconds
Timing for main: time 2016-02-05_13:01:20 on domain   4:     .21354 elapsed seconds
Timing for main: time 2016-02-05_13:01:20 on domain   2:    1.68282 elapsed seconds
Timing for main: time 2016-02-05_13:01:33 on domain   3:     .19121 elapsed seconds
Timing for main: time 2016-02-05_13:01:46 on domain   3:     .17882 elapsed seconds
Timing for main: time 2016-02-05_13:02:00 on domain   3:     .17938 elapsed seconds
Timing for main: time 2016-02-05_13:01:40 on domain   4:     .21730 elapsed seconds
Timing for main: time 2016-02-05_13:02:00 on domain   4:     .21248 elapsed seconds
Timing for main: time 2016-02-05_13:02:00 on domain   2:    1.66149 elapsed seconds
Timing for main: time 2016-02-05_13:02:00 on domain   1:   14.80850 elapsed seconds
Timing for main: time 2016-02-05_13:02:13 on domain   3:     .19144 elapsed seconds
Timing for main: time 2016-02-05_13:02:26 on domain   3:     .17886 elapsed seconds
Timing for main: time 2016-02-05_13:02:40 on domain   3:     .17939 elapsed seconds
Timing for main: time 2016-02-05_13:02:20 on domain   4:     .21814 elapsed seconds
Timing for main: time 2016-02-05_13:02:40 on domain   4:     .21391 elapsed seconds
Timing for main: time 2016-02-05_13:02:40 on domain   2:    1.67423 elapsed seconds
Timing for main: time 2016-02-05_13:02:53 on domain   3:     .19128 elapsed seconds
Timing for main: time 2016-02-05_13:03:06 on domain   3:     .18456 elapsed seconds
Timing for main: time 2016-02-05_13:03:20 on domain   3:     .17939 elapsed seconds
Timing for main: time 2016-02-05_13:03:00 on domain   4:     .21723 elapsed seconds
Timing for main: time 2016-02-05_13:03:20 on domain   4:     .21261 elapsed seconds
Timing for main: time 2016-02-05_13:03:20 on domain   2:    1.66632 elapsed seconds
Timing for main: time 2016-02-05_13:03:33 on domain   3:     .19113 elapsed seconds
Timing for main: time 2016-02-05_13:03:46 on domain   3:     .17905 elapsed seconds
Timing for main: time 2016-02-05_13:04:00 on domain   3:     .17870 elapsed seconds
Timing for main: time 2016-02-05_13:03:40 on domain   4:     .21711 elapsed seconds
Timing for main: time 2016-02-05_13:04:00 on domain   4:     .21284 elapsed seconds
Timing for main: time 2016-02-05_13:04:00 on domain   2:    1.67407 elapsed seconds
Timing for main: time 2016-02-05_13:04:00 on domain   1:    5.37279 elapsed seconds
Timing for main: time 2016-02-05_13:04:13 on domain   3:     .19095 elapsed seconds
Timing for main: time 2016-02-05_13:04:26 on domain   3:     .17916 elapsed seconds
Timing for main: time 2016-02-05_13:04:40 on domain   3:     .17854 elapsed seconds
Timing for main: time 2016-02-05_13:04:20 on domain   4:     .21795 elapsed seconds
Timing for main: time 2016-02-05_13:04:40 on domain   4:     .21614 elapsed seconds
Timing for main: time 2016-02-05_13:04:40 on domain   2:    1.67472 elapsed seconds
Timing for main: time 2016-02-05_13:04:53 on domain   3:     .19117 elapsed seconds
Timing for main: time 2016-02-05_13:05:06 on domain   3:     .17982 elapsed seconds
Timing for main: time 2016-02-05_13:05:20 on domain   3:     .17934 elapsed seconds
Timing for main: time 2016-02-05_13:05:00 on domain   4:     .22682 elapsed seconds
Timing for main: time 2016-02-05_13:05:20 on domain   4:     .21284 elapsed seconds
Timing for main: time 2016-02-05_13:05:20 on domain   2:    1.67147 elapsed seconds
Timing for main: time 2016-02-05_13:05:33 on domain   3:     .19269 elapsed seconds
Timing for main: time 2016-02-05_13:05:46 on domain   3:     .18080 elapsed seconds
Timing for main: time 2016-02-05_13:06:00 on domain   3:     .17901 elapsed seconds
Timing for main: time 2016-02-05_13:05:40 on domain   4:     .21698 elapsed seconds
Timing for main: time 2016-02-05_13:06:00 on domain   4:     .21234 elapsed seconds
Timing for main: time 2016-02-05_13:06:00 on domain   2:    1.66400 elapsed seconds
Timing for main: time 2016-02-05_13:06:00 on domain   1:    5.37566 elapsed seconds
Timing for main: time 2016-02-05_13:06:13 on domain   3:     .21404 elapsed seconds
Timing for main: time 2016-02-05_13:06:26 on domain   3:     .24080 elapsed seconds
Timing for main: time 2016-02-05_13:06:40 on domain   3:     .17994 elapsed seconds
Timing for main: time 2016-02-05_13:06:20 on domain   4:     .21687 elapsed seconds
Timing for main: time 2016-02-05_13:06:40 on domain   4:     .21223 elapsed seconds
Timing for main: time 2016-02-05_13:06:40 on domain   2:    1.75372 elapsed seconds
Timing for main: time 2016-02-05_13:06:53 on domain   3:     .19090 elapsed seconds
Timing for main: time 2016-02-05_13:07:06 on domain   3:     .17919 elapsed seconds
Timing for main: time 2016-02-05_13:07:20 on domain   3:     .17888 elapsed seconds
Timing for main: time 2016-02-05_13:07:00 on domain   4:     .21697 elapsed seconds
Timing for main: time 2016-02-05_13:07:20 on domain   4:     .21876 elapsed seconds
Timing for main: time 2016-02-05_13:07:20 on domain   2:    1.66787 elapsed seconds
Timing for main: time 2016-02-05_13:07:33 on domain   3:     .19144 elapsed seconds
Timing for main: time 2016-02-05_13:07:46 on domain   3:     .17852 elapsed seconds
Timing for main: time 2016-02-05_13:08:00 on domain   3:     .17900 elapsed seconds
Timing for main: time 2016-02-05_13:07:40 on domain   4:     .21708 elapsed seconds
Timing for main: time 2016-02-05_13:08:00 on domain   4:     .21224 elapsed seconds
Timing for main: time 2016-02-05_13:08:00 on domain   2:    1.66169 elapsed seconds
Timing for main: time 2016-02-05_13:08:00 on domain   1:    5.44028 elapsed seconds
Timing for main: time 2016-02-05_13:08:13 on domain   3:     .19346 elapsed seconds
Timing for main: time 2016-02-05_13:08:26 on domain   3:     .18093 elapsed seconds
Timing for main: time 2016-02-05_13:08:40 on domain   3:     .26608 elapsed seconds
Timing for main: time 2016-02-05_13:08:20 on domain   4:     .23775 elapsed seconds
Timing for main: time 2016-02-05_13:08:40 on domain   4:     .21252 elapsed seconds
Timing for main: time 2016-02-05_13:08:40 on domain   2:    1.79329 elapsed seconds
Timing for main: time 2016-02-05_13:08:53 on domain   3:     .19181 elapsed seconds
Timing for main: time 2016-02-05_13:09:06 on domain   3:     .17871 elapsed seconds
Timing for main: time 2016-02-05_13:09:20 on domain   3:     .22028 elapsed seconds
Timing for main: time 2016-02-05_13:09:00 on domain   4:     .21821 elapsed seconds
Timing for main: time 2016-02-05_13:09:20 on domain   4:     .21226 elapsed seconds
Timing for main: time 2016-02-05_13:09:20 on domain   2:    1.75763 elapsed seconds
Timing for main: time 2016-02-05_13:09:33 on domain   3:     .19100 elapsed seconds
Timing for main: time 2016-02-05_13:09:46 on domain   3:     .17935 elapsed seconds
Timing for main: time 2016-02-05_13:10:00 on domain   3:     .17877 elapsed seconds
Timing for main: time 2016-02-05_13:09:40 on domain   4:     .21667 elapsed seconds
Timing for main: time 2016-02-05_13:10:00 on domain   4:     .22157 elapsed seconds
Timing for main: time 2016-02-05_13:10:00 on domain   2:    1.67506 elapsed seconds
Timing for main: time 2016-02-05_13:10:00 on domain   1:    5.58329 elapsed seconds
Timing for main: time 2016-02-05_13:10:13 on domain   3:     .19233 elapsed seconds
Timing for main: time 2016-02-05_13:10:26 on domain   3:     .17829 elapsed seconds
Timing for main: time 2016-02-05_13:10:40 on domain   3:     .18227 elapsed seconds
Timing for main: time 2016-02-05_13:10:20 on domain   4:     .21709 elapsed seconds
Timing for main: time 2016-02-05_13:10:40 on domain   4:     .21202 elapsed seconds
Timing for main: time 2016-02-05_13:10:40 on domain   2:    1.67617 elapsed seconds
Timing for main: time 2016-02-05_13:10:53 on domain   3:     .19136 elapsed seconds
Timing for main: time 2016-02-05_13:11:06 on domain   3:     .17920 elapsed seconds
Timing for main: time 2016-02-05_13:11:20 on domain   3:     .17933 elapsed seconds
Timing for main: time 2016-02-05_13:11:00 on domain   4:     .21685 elapsed seconds
Timing for main: time 2016-02-05_13:11:20 on domain   4:     .21217 elapsed seconds
Timing for main: time 2016-02-05_13:11:20 on domain   2:    1.66615 elapsed seconds
Timing for main: time 2016-02-05_13:11:33 on domain   3:     .19879 elapsed seconds
Timing for main: time 2016-02-05_13:11:46 on domain   3:     .18057 elapsed seconds
Timing for main: time 2016-02-05_13:12:00 on domain   3:     .17937 elapsed seconds
Timing for main: time 2016-02-05_13:11:40 on domain   4:     .21651 elapsed seconds
Timing for main: time 2016-02-05_13:12:00 on domain   4:     .21240 elapsed seconds
Timing for main: time 2016-02-05_13:12:00 on domain   2:    1.67025 elapsed seconds
Timing for main: time 2016-02-05_13:12:00 on domain   1:    5.38049 elapsed seconds
Timing for main: time 2016-02-05_13:12:13 on domain   3:     .19213 elapsed seconds
Timing for main: time 2016-02-05_13:12:26 on domain   3:     .18092 elapsed seconds
Timing for main: time 2016-02-05_13:12:40 on domain   3:     .17878 elapsed seconds
Timing for main: time 2016-02-05_13:12:20 on domain   4:     .21695 elapsed seconds
Timing for main: time 2016-02-05_13:12:40 on domain   4:     .21216 elapsed seconds
Timing for main: time 2016-02-05_13:12:40 on domain   2:    1.69144 elapsed seconds
Timing for main: time 2016-02-05_13:12:53 on domain   3:     .19115 elapsed seconds
Timing for main: time 2016-02-05_13:13:06 on domain   3:     .17810 elapsed seconds
Timing for main: time 2016-02-05_13:13:20 on domain   3:     .17853 elapsed seconds
Timing for main: time 2016-02-05_13:13:00 on domain   4:     .21659 elapsed seconds
Timing for main: time 2016-02-05_13:13:20 on domain   4:     .21204 elapsed seconds
Timing for main: time 2016-02-05_13:13:20 on domain   2:    1.65965 elapsed seconds
Timing for main: time 2016-02-05_13:13:33 on domain   3:     .19140 elapsed seconds
Timing for main: time 2016-02-05_13:13:46 on domain   3:     .18045 elapsed seconds
Timing for main: time 2016-02-05_13:14:00 on domain   3:     .17979 elapsed seconds
Timing for main: time 2016-02-05_13:13:40 on domain   4:     .21682 elapsed seconds
Timing for main: time 2016-02-05_13:14:00 on domain   4:     .21252 elapsed seconds
Timing for main: time 2016-02-05_13:14:00 on domain   2:    1.66464 elapsed seconds
Timing for main: time 2016-02-05_13:14:00 on domain   1:    5.37331 elapsed seconds
Timing for main: time 2016-02-05_13:14:13 on domain   3:     .19054 elapsed seconds
Timing for main: time 2016-02-05_13:14:26 on domain   3:     .17906 elapsed seconds
Timing for main: time 2016-02-05_13:14:40 on domain   3:     .17874 elapsed seconds
Timing for main: time 2016-02-05_13:14:20 on domain   4:     .21852 elapsed seconds
Timing for main: time 2016-02-05_13:14:40 on domain   4:     .21277 elapsed seconds
Timing for main: time 2016-02-05_13:14:40 on domain   2:    1.68392 elapsed seconds
Timing for main: time 2016-02-05_13:14:53 on domain   3:     .19151 elapsed seconds
Timing for main: time 2016-02-05_13:15:06 on domain   3:     .17841 elapsed seconds
Timing for main: time 2016-02-05_13:15:20 on domain   3:     .17900 elapsed seconds
Timing for main: time 2016-02-05_13:15:00 on domain   4:     .22627 elapsed seconds
Timing for main: time 2016-02-05_13:15:20 on domain   4:     .21241 elapsed seconds
Timing for main: time 2016-02-05_13:15:20 on domain   2:    1.67220 elapsed seconds
Timing for main: time 2016-02-05_13:15:33 on domain   3:     .19648 elapsed seconds
Timing for main: time 2016-02-05_13:15:46 on domain   3:     .24498 elapsed seconds
Timing for main: time 2016-02-05_13:16:00 on domain   3:     .18159 elapsed seconds
Timing for main: time 2016-02-05_13:15:40 on domain   4:     .21669 elapsed seconds
Timing for main: time 2016-02-05_13:16:00 on domain   4:     .27951 elapsed seconds
Timing for main: time 2016-02-05_13:16:00 on domain   2:    1.80013 elapsed seconds
Timing for main: time 2016-02-05_13:16:00 on domain   1:    5.51338 elapsed seconds
Timing for main: time 2016-02-05_13:16:13 on domain   3:     .19152 elapsed seconds
Timing for main: time 2016-02-05_13:16:26 on domain   3:     .17935 elapsed seconds
Timing for main: time 2016-02-05_13:16:40 on domain   3:     .18693 elapsed seconds
Timing for main: time 2016-02-05_13:16:20 on domain   4:     .26746 elapsed seconds
Timing for main: time 2016-02-05_13:16:40 on domain   4:     .25073 elapsed seconds
Timing for main: time 2016-02-05_13:16:40 on domain   2:    1.76707 elapsed seconds
Timing for main: time 2016-02-05_13:16:53 on domain   3:     .19113 elapsed seconds
Timing for main: time 2016-02-05_13:17:06 on domain   3:     .17902 elapsed seconds
Timing for main: time 2016-02-05_13:17:20 on domain   3:     .17896 elapsed seconds
Timing for main: time 2016-02-05_13:17:00 on domain   4:     .21668 elapsed seconds
Timing for main: time 2016-02-05_13:17:20 on domain   4:     .21257 elapsed seconds
Timing for main: time 2016-02-05_13:17:20 on domain   2:    1.66145 elapsed seconds
Timing for main: time 2016-02-05_13:17:33 on domain   3:     .19175 elapsed seconds
[...]
Timing for main: time 2016-02-05_17:36:00 on domain   2:    1.67722 elapsed seconds
Timing for main: time 2016-02-05_17:36:00 on domain   1:    5.39252 elapsed seconds
Timing for main: time 2016-02-05_17:36:13 on domain   3:     .19363 elapsed seconds
Timing for main: time 2016-02-05_17:36:26 on domain   3:     .17867 elapsed seconds
Timing for main: time 2016-02-05_17:36:40 on domain   3:     .17903 elapsed seconds
Timing for main: time 2016-02-05_17:36:20 on domain   4:     .21682 elapsed seconds
Timing for main: time 2016-02-05_17:36:40 on domain   4:     .21263 elapsed seconds
Timing for main: time 2016-02-05_17:36:40 on domain   2:    1.67189 elapsed seconds
Timing for main: time 2016-02-05_17:36:53 on domain   3:     .19298 elapsed seconds
Timing for main: time 2016-02-05_17:37:06 on domain   3:     .17874 elapsed seconds
Timing for main: time 2016-02-05_17:37:20 on domain   3:     .18956 elapsed seconds
Timing for main: time 2016-02-05_17:37:00 on domain   4:     .21646 elapsed seconds
Timing for main: time 2016-02-05_17:37:20 on domain   4:     .21228 elapsed seconds
Timing for main: time 2016-02-05_17:37:20 on domain   2:    1.67445 elapsed seconds
Timing for main: time 2016-02-05_17:37:33 on domain   3:     .19303 elapsed seconds
Timing for main: time 2016-02-05_17:37:46 on domain   3:     .18228 elapsed seconds
Timing for main: time 2016-02-05_17:38:00 on domain   3:     .17548 elapsed seconds
Timing for main: time 2016-02-05_17:37:40 on domain   4:     .21936 elapsed seconds
Timing for main: time 2016-02-05_17:38:00 on domain   4:     .21206 elapsed seconds
Timing for main: time 2016-02-05_17:38:00 on domain   2:    1.66522 elapsed seconds
Timing for main: time 2016-02-05_17:38:00 on domain   1:    5.37234 elapsed seconds
Timing for main: time 2016-02-05_17:38:13 on domain   3:     .19311 elapsed seconds
Timing for main: time 2016-02-05_17:38:26 on domain   3:     .17931 elapsed seconds
Timing for main: time 2016-02-05_17:38:40 on domain   3:     .17887 elapsed seconds
Timing for main: time 2016-02-05_17:38:20 on domain   4:     .21817 elapsed seconds
Timing for main: time 2016-02-05_17:38:40 on domain   4:     .21656 elapsed seconds
Timing for main: time 2016-02-05_17:38:40 on domain   2:    1.67598 elapsed seconds
Timing for main: time 2016-02-05_17:38:53 on domain   3:     .19317 elapsed seconds
Timing for main: time 2016-02-05_17:39:06 on domain   3:     .17908 elapsed seconds
Timing for main: time 2016-02-05_17:39:20 on domain   3:     .18003 elapsed seconds
Timing for main: time 2016-02-05_17:39:00 on domain   4:     .21668 elapsed seconds
Timing for main: time 2016-02-05_17:39:20 on domain   4:     .21246 elapsed seconds
Timing for main: time 2016-02-05_17:39:20 on domain   2:    1.66466 elapsed seconds
Timing for main: time 2016-02-05_17:39:33 on domain   3:     .19306 elapsed seconds
Timing for main: time 2016-02-05_17:39:46 on domain   3:     .17825 elapsed seconds
Timing for main: time 2016-02-05_17:40:00 on domain   3:     .18494 elapsed seconds
Timing for main: time 2016-02-05_17:39:40 on domain   4:     .21715 elapsed seconds
Timing for main: time 2016-02-05_17:40:00 on domain   4:     .22257 elapsed seconds
Timing for main: time 2016-02-05_17:40:00 on domain   2:    1.67989 elapsed seconds
Timing for main: time 2016-02-05_17:40:00 on domain   1:    5.38066 elapsed seconds
Timing for main: time 2016-02-05_17:40:13 on domain   3:     .19307 elapsed seconds
Timing for main: time 2016-02-05_17:40:26 on domain   3:     .17857 elapsed seconds
Timing for main: time 2016-02-05_17:40:40 on domain   3:     .17972 elapsed seconds
Timing for main: time 2016-02-05_17:40:20 on domain   4:     .21701 elapsed seconds
Timing for main: time 2016-02-05_17:40:40 on domain   4:     .21246 elapsed seconds
Timing for main: time 2016-02-05_17:40:40 on domain   2:    1.67034 elapsed seconds
Timing for main: time 2016-02-05_17:40:53 on domain   3:     .19304 elapsed seconds
Timing for main: time 2016-02-05_17:41:06 on domain   3:     .17846 elapsed seconds
Timing for main: time 2016-02-05_17:41:20 on domain   3:     .18233 elapsed seconds
Timing for main: time 2016-02-05_17:41:00 on domain   4:     .21876 elapsed seconds
Timing for main: time 2016-02-05_17:41:20 on domain   4:     .21291 elapsed seconds
Timing for main: time 2016-02-05_17:41:20 on domain   2:    1.68106 elapsed seconds
Timing for main: time 2016-02-05_17:41:33 on domain   3:     .19738 elapsed seconds
Timing for main: time 2016-02-05_17:41:46 on domain   3:     .17868 elapsed seconds
Timing for main: time 2016-02-05_17:42:00 on domain   3:     .17865 elapsed seconds
Timing for main: time 2016-02-05_17:41:40 on domain   4:     .21704 elapsed seconds
Timing for main: time 2016-02-05_17:42:00 on domain   4:     .21244 elapsed seconds
Timing for main: time 2016-02-05_17:42:00 on domain   2:    1.66786 elapsed seconds
Timing for main: time 2016-02-05_17:42:00 on domain   1:    5.38654 elapsed seconds
Timing for main: time 2016-02-05_17:42:13 on domain   3:     .19250 elapsed seconds
Timing for main: time 2016-02-05_17:42:26 on domain   3:     .19234 elapsed seconds
Timing for main: time 2016-02-05_17:42:40 on domain   3:     .17988 elapsed seconds
Timing for main: time 2016-02-05_17:42:20 on domain   4:     .21669 elapsed seconds
Timing for main: time 2016-02-05_17:42:40 on domain   4:     .21269 elapsed seconds
Timing for main: time 2016-02-05_17:42:40 on domain   2:    1.68413 elapsed seconds
Timing for main: time 2016-02-05_17:42:53 on domain   3:     .19346 elapsed seconds
Timing for main: time 2016-02-05_17:43:06 on domain   3:     .17907 elapsed seconds
Timing for main: time 2016-02-05_17:43:20 on domain   3:     .17886 elapsed seconds
Timing for main: time 2016-02-05_17:43:00 on domain   4:     .21682 elapsed seconds
Timing for main: time 2016-02-05_17:43:20 on domain   4:     .21237 elapsed seconds
Timing for main: time 2016-02-05_17:43:20 on domain   2:    1.66498 elapsed seconds
Timing for main: time 2016-02-05_17:43:33 on domain   3:     .19310 elapsed seconds
Timing for main: time 2016-02-05_17:43:46 on domain   3:     .17859 elapsed seconds
Timing for main: time 2016-02-05_17:44:00 on domain   3:     .18049 elapsed seconds
Timing for main: time 2016-02-05_17:43:40 on domain   4:     .21640 elapsed seconds
Timing for main: time 2016-02-05_17:44:00 on domain   4:     .21267 elapsed seconds
Timing for main: time 2016-02-05_17:44:00 on domain   2:    1.66383 elapsed seconds
Timing for main: time 2016-02-05_17:44:00 on domain   1:    5.37454 elapsed seconds
Timing for main: time 2016-02-05_17:44:13 on domain   3:     .19320 elapsed seconds
Timing for main: time 2016-02-05_17:44:26 on domain   3:     .17860 elapsed seconds
Timing for main: time 2016-02-05_17:44:40 on domain   3:     .17968 elapsed seconds
Timing for main: time 2016-02-05_17:44:20 on domain   4:     .21661 elapsed seconds
Timing for main: time 2016-02-05_17:44:40 on domain   4:     .21278 elapsed seconds
Timing for main: time 2016-02-05_17:44:40 on domain   2:    1.67126 elapsed seconds
Timing for main: time 2016-02-05_17:44:53 on domain   3:     .19643 elapsed seconds
Timing for main: time 2016-02-05_17:45:06 on domain   3:     .17921 elapsed seconds
Timing for main: time 2016-02-05_17:45:20 on domain   3:     .17858 elapsed seconds
Timing for main: time 2016-02-05_17:45:00 on domain   4:     .23220 elapsed seconds
Timing for main: time 2016-02-05_17:45:20 on domain   4:     .21194 elapsed seconds
Timing for main: time 2016-02-05_17:45:20 on domain   2:    1.68210 elapsed seconds
Timing for main: time 2016-02-05_17:45:33 on domain   3:     .19324 elapsed seconds
Timing for main: time 2016-02-05_17:45:46 on domain   3:     .17889 elapsed seconds
Timing for main: time 2016-02-05_17:46:00 on domain   3:     .18006 elapsed seconds
Timing for main: time 2016-02-05_17:45:40 on domain   4:     .21674 elapsed seconds
Timing for main: time 2016-02-05_17:46:00 on domain   4:     .21278 elapsed seconds
Timing for main: time 2016-02-05_17:46:00 on domain   2:    1.66376 elapsed seconds
Timing for main: time 2016-02-05_17:46:00 on domain   1:    5.37702 elapsed seconds
Timing for main: time 2016-02-05_17:46:13 on domain   3:     .19294 elapsed seconds
Timing for main: time 2016-02-05_17:46:26 on domain   3:     .17879 elapsed seconds
Timing for main: time 2016-02-05_17:46:40 on domain   3:     .17885 elapsed seconds
Timing for main: time 2016-02-05_17:46:20 on domain   4:     .21650 elapsed seconds
Timing for main: time 2016-02-05_17:46:40 on domain   4:     .21592 elapsed seconds
Timing for main: time 2016-02-05_17:46:40 on domain   2:    1.68428 elapsed seconds
Timing for main: time 2016-02-05_17:46:53 on domain   3:     .19333 elapsed seconds
Timing for main: time 2016-02-05_17:47:06 on domain   3:     .17898 elapsed seconds
Timing for main: time 2016-02-05_17:47:20 on domain   3:     .18038 elapsed seconds
Timing for main: time 2016-02-05_17:47:00 on domain   4:     .21692 elapsed seconds
Timing for main: time 2016-02-05_17:47:20 on domain   4:     .21227 elapsed seconds
Timing for main: time 2016-02-05_17:47:20 on domain   2:    1.66583 elapsed seconds
Timing for main: time 2016-02-05_17:47:33 on domain   3:     .20109 elapsed seconds
Timing for main: time 2016-02-05_17:47:46 on domain   3:     .17890 elapsed seconds
Timing for main: time 2016-02-05_17:48:00 on domain   3:     .17867 elapsed seconds
Timing for main: time 2016-02-05_17:47:40 on domain   4:     .21670 elapsed seconds
Timing for main: time 2016-02-05_17:48:00 on domain   4:     .21239 elapsed seconds
Timing for main: time 2016-02-05_17:48:00 on domain   2:    1.67205 elapsed seconds
Timing for main: time 2016-02-05_17:48:00 on domain   1:    5.38897 elapsed seconds
Timing for main: time 2016-02-05_17:48:13 on domain   3:     .19277 elapsed seconds
Timing for main: time 2016-02-05_17:48:26 on domain   3:     .17880 elapsed seconds
Timing for main: time 2016-02-05_17:48:40 on domain   3:     .17917 elapsed seconds
Timing for main: time 2016-02-05_17:48:20 on domain   4:     .21701 elapsed seconds
Timing for main: time 2016-02-05_17:48:40 on domain   4:     .21234 elapsed seconds
Timing for main: time 2016-02-05_17:48:40 on domain   2:    1.67085 elapsed seconds
Timing for main: time 2016-02-05_17:48:53 on domain   3:     .19380 elapsed seconds
Timing for main: time 2016-02-05_17:49:06 on domain   3:     .18121 elapsed seconds
Timing for main: time 2016-02-05_17:49:20 on domain   3:     .17891 elapsed seconds
Timing for main: time 2016-02-05_17:49:00 on domain   4:     .21678 elapsed seconds
Timing for main: time 2016-02-05_17:49:20 on domain   4:     .21243 elapsed seconds
Timing for main: time 2016-02-05_17:49:20 on domain   2:    1.66745 elapsed seconds
Timing for main: time 2016-02-05_17:49:33 on domain   3:     .19325 elapsed seconds
Timing for main: time 2016-02-05_17:49:46 on domain   3:     .17864 elapsed seconds
Timing for main: time 2016-02-05_17:50:00 on domain   3:     .17900 elapsed seconds
Timing for main: time 2016-02-05_17:49:40 on domain   4:     .22134 elapsed seconds
Timing for main: time 2016-02-05_17:50:00 on domain   4:     .22214 elapsed seconds
Timing for main: time 2016-02-05_17:50:00 on domain   2:    1.67854 elapsed seconds
Timing for main: time 2016-02-05_17:50:00 on domain   1:    5.37682 elapsed seconds
Timing for main: time 2016-02-05_17:50:13 on domain   3:     .19258 elapsed seconds
Timing for main: time 2016-02-05_17:50:26 on domain   3:     .17851 elapsed seconds
Timing for main: time 2016-02-05_17:50:40 on domain   3:     .17962 elapsed seconds
Timing for main: time 2016-02-05_17:50:20 on domain   4:     .21652 elapsed seconds
Timing for main: time 2016-02-05_17:50:40 on domain   4:     .21271 elapsed seconds
Timing for main: time 2016-02-05_17:50:40 on domain   2:    1.67131 elapsed seconds
Timing for main: time 2016-02-05_17:50:53 on domain   3:     .19283 elapsed seconds
Timing for main: time 2016-02-05_17:51:06 on domain   3:     .17841 elapsed seconds
Timing for main: time 2016-02-05_17:51:20 on domain   3:     .17843 elapsed seconds
Timing for main: time 2016-02-05_17:51:00 on domain   4:     .21452 elapsed seconds
Timing for main: time 2016-02-05_17:51:20 on domain   4:     .21181 elapsed seconds
Timing for main: time 2016-02-05_17:51:20 on domain   2:    1.66105 elapsed seconds
Timing for main: time 2016-02-05_17:51:33 on domain   3:     .19315 elapsed seconds
Timing for main: time 2016-02-05_17:51:46 on domain   3:     .17862 elapsed seconds
Timing for main: time 2016-02-05_17:52:00 on domain   3:     .17934 elapsed seconds
Timing for main: time 2016-02-05_17:51:40 on domain   4:     .21678 elapsed seconds
Timing for main: time 2016-02-05_17:52:00 on domain   4:     .21438 elapsed seconds
Timing for main: time 2016-02-05_17:52:00 on domain   2:    1.67434 elapsed seconds
Timing for main: time 2016-02-05_17:52:00 on domain   1:    5.36681 elapsed seconds
Timing for main: time 2016-02-05_17:52:13 on domain   3:     .19296 elapsed seconds
Timing for main: time 2016-02-05_17:52:26 on domain   3:     .18101 elapsed seconds
Timing for main: time 2016-02-05_17:52:40 on domain   3:     .18720 elapsed seconds
Timing for main: time 2016-02-05_17:52:20 on domain   4:     .21673 elapsed seconds
Timing for main: time 2016-02-05_17:52:40 on domain   4:     .21265 elapsed seconds
Timing for main: time 2016-02-05_17:52:40 on domain   2:    1.68080 elapsed seconds
Timing for main: time 2016-02-05_17:52:53 on domain   3:     .19284 elapsed seconds
Timing for main: time 2016-02-05_17:53:06 on domain   3:     .17857 elapsed seconds
Timing for main: time 2016-02-05_17:53:20 on domain   3:     .17952 elapsed seconds
Timing for main: time 2016-02-05_17:53:00 on domain   4:     .21615 elapsed seconds
Timing for main: time 2016-02-05_17:53:20 on domain   4:     .21261 elapsed seconds
Timing for main: time 2016-02-05_17:53:20 on domain   2:    1.66226 elapsed seconds
Timing for main: time 2016-02-05_17:53:33 on domain   3:     .19927 elapsed seconds
Timing for main: time 2016-02-05_17:53:46 on domain   3:     .17782 elapsed seconds
Timing for main: time 2016-02-05_17:54:00 on domain   3:     .18184 elapsed seconds
Timing for main: time 2016-02-05_17:53:40 on domain   4:     .21687 elapsed seconds
Timing for main: time 2016-02-05_17:54:00 on domain   4:     .21216 elapsed seconds
Timing for main: time 2016-02-05_17:54:00 on domain   2:    1.67097 elapsed seconds
Timing for main: time 2016-02-05_17:54:00 on domain   1:    5.38084 elapsed seconds
Timing for main: time 2016-02-05_17:54:13 on domain   3:     .19377 elapsed seconds
Timing for main: time 2016-02-05_17:54:26 on domain   3:     .17863 elapsed seconds
Timing for main: time 2016-02-05_17:54:40 on domain   3:     .17899 elapsed seconds
Timing for main: time 2016-02-05_17:54:20 on domain   4:     .21666 elapsed seconds
Timing for main: time 2016-02-05_17:54:40 on domain   4:     .21241 elapsed seconds
Timing for main: time 2016-02-05_17:54:40 on domain   2:    1.67016 elapsed seconds
Timing for main: time 2016-02-05_17:54:53 on domain   3:     .19029 elapsed seconds
Timing for main: time 2016-02-05_17:55:06 on domain   3:     .17945 elapsed seconds
Timing for main: time 2016-02-05_17:55:20 on domain   3:     .17857 elapsed seconds
Timing for main: time 2016-02-05_17:55:00 on domain   4:     .22605 elapsed seconds
Timing for main: time 2016-02-05_17:55:20 on domain   4:     .21272 elapsed seconds
Timing for main: time 2016-02-05_17:55:20 on domain   2:    1.67250 elapsed seconds
Timing for main: time 2016-02-05_17:55:33 on domain   3:     .19360 elapsed seconds
Timing for main: time 2016-02-05_17:55:46 on domain   3:     .17908 elapsed seconds
Timing for main: time 2016-02-05_17:56:00 on domain   3:     .18200 elapsed seconds
Timing for main: time 2016-02-05_17:55:40 on domain   4:     .21650 elapsed seconds
Timing for main: time 2016-02-05_17:56:00 on domain   4:     .21256 elapsed seconds
Timing for main: time 2016-02-05_17:56:00 on domain   2:    1.66649 elapsed seconds
Timing for main: time 2016-02-05_17:56:00 on domain   1:    5.36914 elapsed seconds
Timing for main: time 2016-02-05_17:56:13 on domain   3:     .19344 elapsed seconds
Timing for main: time 2016-02-05_17:56:26 on domain   3:     .17915 elapsed seconds
Timing for main: time 2016-02-05_17:56:40 on domain   3:     .18474 elapsed seconds
Timing for main: time 2016-02-05_17:56:20 on domain   4:     .21674 elapsed seconds
Timing for main: time 2016-02-05_17:56:40 on domain   4:     .21240 elapsed seconds
Timing for main: time 2016-02-05_17:56:40 on domain   2:    1.67483 elapsed seconds
Timing for main: time 2016-02-05_17:56:53 on domain   3:     .19407 elapsed seconds
Timing for main: time 2016-02-05_17:57:06 on domain   3:     .18012 elapsed seconds
Timing for main: time 2016-02-05_17:57:20 on domain   3:     .17862 elapsed seconds
Timing for main: time 2016-02-05_17:57:00 on domain   4:     .21735 elapsed seconds
Timing for main: time 2016-02-05_17:57:20 on domain   4:     .21341 elapsed seconds
Timing for main: time 2016-02-05_17:57:20 on domain   2:    1.67663 elapsed seconds
Timing for main: time 2016-02-05_17:57:33 on domain   3:     .19343 elapsed seconds
Timing for main: time 2016-02-05_17:57:46 on domain   3:     .18660 elapsed seconds
Timing for main: time 2016-02-05_17:58:00 on domain   3:     .17882 elapsed seconds
Timing for main: time 2016-02-05_17:57:40 on domain   4:     .21644 elapsed seconds
Timing for main: time 2016-02-05_17:58:00 on domain   4:     .21242 elapsed seconds
Timing for main: time 2016-02-05_17:58:00 on domain   2:    1.67194 elapsed seconds
Timing for main: time 2016-02-05_17:58:00 on domain   1:    5.38303 elapsed seconds
  photolysis_driver: called for domain  1
Timing for main: time 2016-02-05_17:58:13 on domain   3:     .19387 elapsed seconds
Timing for main: time 2016-02-05_17:58:26 on domain   3:     .17941 elapsed seconds
Timing for main: time 2016-02-05_17:58:40 on domain   3:     .18131 elapsed seconds
Timing for main: time 2016-02-05_17:58:20 on domain   4:     .21654 elapsed seconds
Timing for main: time 2016-02-05_17:58:40 on domain   4:     .21275 elapsed seconds
Timing for main: time 2016-02-05_17:58:40 on domain   2:    1.67650 elapsed seconds
Timing for main: time 2016-02-05_17:58:53 on domain   3:     .19393 elapsed seconds
Timing for main: time 2016-02-05_17:59:06 on domain   3:     .17919 elapsed seconds
Timing for main: time 2016-02-05_17:59:20 on domain   3:     .17852 elapsed seconds
Timing for main: time 2016-02-05_17:59:00 on domain   4:     .21696 elapsed seconds
Timing for main: time 2016-02-05_17:59:20 on domain   4:     .21205 elapsed seconds
Timing for main: time 2016-02-05_17:59:20 on domain   2:    1.66362 elapsed seconds
  photolysis_driver: called for domain  2
Timing for main: time 2016-02-05_17:59:33 on domain   3:     .21968 elapsed seconds
Timing for main: time 2016-02-05_17:59:46 on domain   3:     .19301 elapsed seconds
  photolysis_driver: called for domain  3
Timing for main: time 2016-02-05_18:00:00 on domain   3:    1.04401 elapsed seconds
Timing for Writing wrfout_d03_2016-02-05_18:00:00 for domain        3:    1.74539 elapsed seconds
Timing for main: time 2016-02-05_17:59:40 on domain   4:     .22005 elapsed seconds
  photolysis_driver: called for domain  4
Timing for main: time 2016-02-05_18:00:00 on domain   4:    1.24190 elapsed seconds
Timing for Writing wrfout_d04_2016-02-05_18:00:00 for domain        4:    2.05170 elapsed seconds
Timing for main: time 2016-02-05_18:00:00 on domain   2:    9.97171 elapsed seconds
Timing for Writing wrfout_d02_2016-02-05_18:00:00 for domain        2:    3.05624 elapsed seconds
Timing for main: time 2016-02-05_18:00:00 on domain   1:   17.33530 elapsed seconds
Timing for Writing wrfout_d01_2016-02-05_18:00:00 for domain        1:    2.36150 elapsed seconds
 d01 2016-02-05_18:00:00 wrf: SUCCESS COMPLETE WRF
