taskid: 0 hostname: p10a51.pbm.ihost.com
  Ntasks in X  8 , ntasks in Y  10
 Setting blank km_opt entries to domain #1 values.
  --> The km_opt entry in the namelist.input is now max_domains.
 Setting blank diff_opt entries to domain #1 values.
  --> The diff_opt entry in the namelist.input is now max_domains.
 --- WARNING: traj_opt is zero, but num_traj is not zero; setting num_traj to zero.
 --- NOTE: hypsometric_opt is 2, setting adjust_heights = F
 --- NOTE: sst_update is 0, setting io_form_auxinput4 = 0 and auxinput4_interval = 0 for all domains
 --- NOTE: sst_update is 0, setting io_form_auxinput4 = 0 and auxinput4_interval = 0 for all domains
 --- NOTE: sst_update is 0, setting io_form_auxinput4 = 0 and auxinput4_interval = 0 for all domains
 --- NOTE: sst_update is 0, setting io_form_auxinput4 = 0 and auxinput4_interval = 0 for all domains
 --- NOTE: grid_fdda is 0 for domain      1, setting gfdda interval and ending time to 0 for that domain.
 --- NOTE: both grid_sfdda and pxlsm_soil_nudge are 0 for domain      1, setting sgfdda interval and ending time to 0 for that domain.
 --- NOTE: obs_nudge_opt is 0 for domain      1, setting obs nudging interval and ending time to 0 for that domain.
 --- NOTE: grid_fdda is 0 for domain      2, setting gfdda interval and ending time to 0 for that domain.
 --- NOTE: both grid_sfdda and pxlsm_soil_nudge are 0 for domain      2, setting sgfdda interval and ending time to 0 for that domain.
 --- NOTE: obs_nudge_opt is 0 for domain      2, setting obs nudging interval and ending time to 0 for that domain.
 --- NOTE: grid_fdda is 0 for domain      3, setting gfdda interval and ending time to 0 for that domain.
 --- NOTE: both grid_sfdda and pxlsm_soil_nudge are 0 for domain      3, setting sgfdda interval and ending time to 0 for that domain.
 --- NOTE: obs_nudge_opt is 0 for domain      3, setting obs nudging interval and ending time to 0 for that domain.
 --- NOTE: grid_fdda is 0 for domain      4, setting gfdda interval and ending time to 0 for that domain.
 --- NOTE: both grid_sfdda and pxlsm_soil_nudge are 0 for domain      4, setting sgfdda interval and ending time to 0 for that domain.
 --- NOTE: obs_nudge_opt is 0 for domain      4, setting obs nudging interval and ending time to 0 for that domain.
 bl_pbl_physics /= 4, implies mfshconv must be 0, resetting
 --- NOTE: num_soil_layers has been set to      4
 WRF V3.6 MODEL
  *************************************
  Parent domain
  ids,ide,jds,jde  1 271 1 181
  ims,ime,jms,jme  -4 41 -4 25
  ips,ipe,jps,jpe  1 34 1 18
  *************************************
 DYNAMICS OPTION: Eulerian Mass Coordinate
    alloc_space_field: domain  1 ,  137778416  bytes allocated
   med_initialdata_input: calling input_input
Timing for processing wrfinput file (stream 0) for domain        1:    5.70372 elapsed seconds
 INPUT LandUse = "USGS"
  LANDUSE TYPE = "USGS" FOUND 33  CATEGORIES 2  SEASONS WATER CATEGORY =  16  SNOW CATEGORY =  24
 INITIALIZE THREE Noah LSM RELATED TABLES
  LANDUSE TYPE = USGS FOUND 27  CATEGORIES
  INPUT SOIL TEXTURE CLASSIFICATION = STAS
  SOIL TEXTURE CLASSIFICATION = STAS FOUND 19  CATEGORIES
 *********************************************************************
 *             PROGRAM:WRF/CHEM V3.6 MODEL
 *                                                                   *
 *    PLEASE REPORT ANY BUGS TO WRF/CHEM HELP at                     *
 *                                                                   *
 *              wrfchemhelp.gsd@noaa.gov                             *
 *                                                                   *
 *********************************************************************
 WARNING: dust option 1 currently works only with the GOCART aerosol option.
 WARNING: sea salt option 1 currently works only with the GOCART aerosol option.
  *************************************
  Nesting domain
  ids,ide,jds,jde  1 361 1 253
  ims,ime,jms,jme  -4 57 -4 36
  ips,ipe,jps,jpe  1 45 1 26
  INTERMEDIATE domain
  ids,ide,jds,jde  74 199 47 136
  ims,ime,jms,jme  69 100 42 67
  ips,ipe,jps,jpe  72 90 45 57
  *************************************
 d01 2016-02-05_12:00:00  alloc_space_field: domain  2 ,  248467424  bytes allocated
 d01 2016-02-05_12:00:00  alloc_space_field: domain  2 ,  10479872  bytes allocated
 d01 2016-02-05_12:00:00 *** Initializing nest domain # 2 from an input file. ***
 d01 2016-02-05_12:00:00 med_initialdata_input: calling input_input
Timing for processing wrfinput file (stream 0) for domain        2:    7.99651 elapsed seconds
 INPUT LandUse = "USGS"
  LANDUSE TYPE = "USGS" FOUND 33  CATEGORIES 2  SEASONS WATER CATEGORY =  16  SNOW CATEGORY =  24
 INITIALIZE THREE Noah LSM RELATED TABLES
  LANDUSE TYPE = USGS FOUND 27  CATEGORIES
  INPUT SOIL TEXTURE CLASSIFICATION = STAS
  SOIL TEXTURE CLASSIFICATION = STAS FOUND 19  CATEGORIES
 *********************************************************************
 *             PROGRAM:WRF/CHEM V3.6 MODEL
 *                                                                   *
 *    PLEASE REPORT ANY BUGS TO WRF/CHEM HELP at                     *
 *                                                                   *
 *              wrfchemhelp.gsd@noaa.gov                             *
 *                                                                   *
 *********************************************************************
 WARNING: dust option 1 currently works only with the GOCART aerosol option.
 WARNING: sea salt option 1 currently works only with the GOCART aerosol option.
 INPUT LandUse = "USGS"
  LANDUSE TYPE = "USGS" FOUND 33  CATEGORIES 2  SEASONS WATER CATEGORY =  16  SNOW CATEGORY =  24
 INITIALIZE THREE Noah LSM RELATED TABLES
  LANDUSE TYPE = USGS FOUND 27  CATEGORIES
  INPUT SOIL TEXTURE CLASSIFICATION = STAS
  SOIL TEXTURE CLASSIFICATION = STAS FOUND 19  CATEGORIES
 *********************************************************************
 *             PROGRAM:WRF/CHEM V3.6 MODEL
 *                                                                   *
 *    PLEASE REPORT ANY BUGS TO WRF/CHEM HELP at                     *
 *                                                                   *
 *              wrfchemhelp.gsd@noaa.gov                             *
 *                                                                   *
 *********************************************************************
 WARNING: dust option 1 currently works only with the GOCART aerosol option.
 WARNING: sea salt option 1 currently works only with the GOCART aerosol option.
 INPUT LandUse = "USGS"
  LANDUSE TYPE = "USGS" FOUND 33  CATEGORIES 2  SEASONS WATER CATEGORY =  16  SNOW CATEGORY =  24
 INITIALIZE THREE Noah LSM RELATED TABLES
  LANDUSE TYPE = USGS FOUND 27  CATEGORIES
  INPUT SOIL TEXTURE CLASSIFICATION = STAS
  SOIL TEXTURE CLASSIFICATION = STAS FOUND 19  CATEGORIES
 *********************************************************************
 *             PROGRAM:WRF/CHEM V3.6 MODEL
 *                                                                   *
 *    PLEASE REPORT ANY BUGS TO WRF/CHEM HELP at                     *
 *                                                                   *
 *              wrfchemhelp.gsd@noaa.gov                             *
 *                                                                   *
 *********************************************************************
 WARNING: dust option 1 currently works only with the GOCART aerosol option.
 WARNING: sea salt option 1 currently works only with the GOCART aerosol option.
Timing for Writing wrfout_d01_2016-02-05_12:00:00 for domain        1:    1.59534 elapsed seconds
  mediation_integrate: med_read_wrf_chem_emissions: Open file wrfchemi_12z_d01
  HOURLY EMISSIONS UPDATE TIME         .0        .0
 mediation_integrate: med_read_wrf_chem_emissions: Read emissions for time 2016-02-05_12:00:00
 **WARNING** Time in input file not being checked **WARNING**
Timing for processing lateral boundary for domain        1:    3.66294 elapsed seconds
  Tile Strategy is not specified. Assuming 1D-Y
 WRF TILE   1 IS      1 IE     34 JS      1 JE     18
 WRF NUMBER OF TILES =   1
  photolysis_driver: called for domain  1
  *************************************
  Nesting domain
  ids,ide,jds,jde  1 307 1 241
  ims,ime,jms,jme  -4 51 -4 36
  ips,ipe,jps,jpe  1 39 1 24
  INTERMEDIATE domain
  ids,ide,jds,jde  124 231 35 120
  ims,ime,jms,jme  119 148 30 54
  ips,ipe,jps,jpe  122 138 33 44
  *************************************
 d02 2016-02-05_12:00:00  alloc_space_field: domain  3 ,  224880776  bytes allocated
 d02 2016-02-05_12:00:00  alloc_space_field: domain  3 ,  9447000  bytes allocated
 d02 2016-02-05_12:00:00 *** Initializing nest domain # 3 from an input file. ***
 d02 2016-02-05_12:00:00 med_initialdata_input: calling input_input
Timing for processing wrfinput file (stream 0) for domain        3:    6.64708 elapsed seconds
 INPUT LandUse = "USGS"
  LANDUSE TYPE = "USGS" FOUND 33  CATEGORIES 2  SEASONS WATER CATEGORY =  16  SNOW CATEGORY =  24
 INITIALIZE THREE Noah LSM RELATED TABLES
  LANDUSE TYPE = USGS FOUND 27  CATEGORIES
  INPUT SOIL TEXTURE CLASSIFICATION = STAS
  SOIL TEXTURE CLASSIFICATION = STAS FOUND 19  CATEGORIES
 *********************************************************************
 *             PROGRAM:WRF/CHEM V3.6 MODEL
 *                                                                   *
 *    PLEASE REPORT ANY BUGS TO WRF/CHEM HELP at                     *
 *                                                                   *
 *              wrfchemhelp.gsd@noaa.gov                             *
 *                                                                   *
 *********************************************************************
 WARNING: dust option 1 currently works only with the GOCART aerosol option.
 WARNING: sea salt option 1 currently works only with the GOCART aerosol option.
 INPUT LandUse = "USGS"
  LANDUSE TYPE = "USGS" FOUND 33  CATEGORIES 2  SEASONS WATER CATEGORY =  16  SNOW CATEGORY =  24
 INITIALIZE THREE Noah LSM RELATED TABLES
  LANDUSE TYPE = USGS FOUND 27  CATEGORIES
  INPUT SOIL TEXTURE CLASSIFICATION = STAS
  SOIL TEXTURE CLASSIFICATION = STAS FOUND 19  CATEGORIES
 *********************************************************************
 *             PROGRAM:WRF/CHEM V3.6 MODEL
 *                                                                   *
 *    PLEASE REPORT ANY BUGS TO WRF/CHEM HELP at                     *
 *                                                                   *
 *              wrfchemhelp.gsd@noaa.gov                             *
 *                                                                   *
 *********************************************************************
 WARNING: dust option 1 currently works only with the GOCART aerosol option.
 WARNING: sea salt option 1 currently works only with the GOCART aerosol option.
 INPUT LandUse = "USGS"
  LANDUSE TYPE = "USGS" FOUND 33  CATEGORIES 2  SEASONS WATER CATEGORY =  16  SNOW CATEGORY =  24
 INITIALIZE THREE Noah LSM RELATED TABLES
  LANDUSE TYPE = USGS FOUND 27  CATEGORIES
  INPUT SOIL TEXTURE CLASSIFICATION = STAS
  SOIL TEXTURE CLASSIFICATION = STAS FOUND 19  CATEGORIES
 *********************************************************************
 *             PROGRAM:WRF/CHEM V3.6 MODEL
 *                                                                   *
 *    PLEASE REPORT ANY BUGS TO WRF/CHEM HELP at                     *
 *                                                                   *
 *              wrfchemhelp.gsd@noaa.gov                             *
 *                                                                   *
 *********************************************************************
 WARNING: dust option 1 currently works only with the GOCART aerosol option.
 WARNING: sea salt option 1 currently works only with the GOCART aerosol option.
  *************************************
  Nesting domain
  ids,ide,jds,jde  1 217 1 388
  ims,ime,jms,jme  -4 39 -4 51
  ips,ipe,jps,jpe  1 27 1 39
  INTERMEDIATE domain
  ids,ide,jds,jde  225 302 83 217
  ims,ime,jms,jme  220 245 78 107
  ips,ipe,jps,jpe  223 235 81 97
  *************************************
 d02 2016-02-05_12:00:00  alloc_space_field: domain  4 ,  240788348  bytes allocated
 d02 2016-02-05_12:00:00  alloc_space_field: domain  4 ,  9824880  bytes allocated
 d02 2016-02-05_12:00:00 *** Initializing nest domain # 4 from an input file. ***
 d02 2016-02-05_12:00:00 med_initialdata_input: calling input_input
Timing for processing wrfinput file (stream 0) for domain        4:    7.55726 elapsed seconds
 INPUT LandUse = "USGS"
  LANDUSE TYPE = "USGS" FOUND 33  CATEGORIES 2  SEASONS WATER CATEGORY =  16  SNOW CATEGORY =  24
 INITIALIZE THREE Noah LSM RELATED TABLES
  LANDUSE TYPE = USGS FOUND 27  CATEGORIES
  INPUT SOIL TEXTURE CLASSIFICATION = STAS
  SOIL TEXTURE CLASSIFICATION = STAS FOUND 19  CATEGORIES
 *********************************************************************
 *             PROGRAM:WRF/CHEM V3.6 MODEL
 *                                                                   *
 *    PLEASE REPORT ANY BUGS TO WRF/CHEM HELP at                     *
 *                                                                   *
 *              wrfchemhelp.gsd@noaa.gov                             *
 *                                                                   *
 *********************************************************************
 WARNING: dust option 1 currently works only with the GOCART aerosol option.
 WARNING: sea salt option 1 currently works only with the GOCART aerosol option.
 INPUT LandUse = "USGS"
  LANDUSE TYPE = "USGS" FOUND 33  CATEGORIES 2  SEASONS WATER CATEGORY =  16  SNOW CATEGORY =  24
 INITIALIZE THREE Noah LSM RELATED TABLES
  LANDUSE TYPE = USGS FOUND 27  CATEGORIES
  INPUT SOIL TEXTURE CLASSIFICATION = STAS
  SOIL TEXTURE CLASSIFICATION = STAS FOUND 19  CATEGORIES
 *********************************************************************
 *             PROGRAM:WRF/CHEM V3.6 MODEL
 *                                                                   *
 *    PLEASE REPORT ANY BUGS TO WRF/CHEM HELP at                     *
 *                                                                   *
 *              wrfchemhelp.gsd@noaa.gov                             *
 *                                                                   *
 *********************************************************************
 WARNING: dust option 1 currently works only with the GOCART aerosol option.
 WARNING: sea salt option 1 currently works only with the GOCART aerosol option.
 INPUT LandUse = "USGS"
  LANDUSE TYPE = "USGS" FOUND 33  CATEGORIES 2  SEASONS WATER CATEGORY =  16  SNOW CATEGORY =  24
 INITIALIZE THREE Noah LSM RELATED TABLES
  LANDUSE TYPE = USGS FOUND 27  CATEGORIES
  INPUT SOIL TEXTURE CLASSIFICATION = STAS
  SOIL TEXTURE CLASSIFICATION = STAS FOUND 19  CATEGORIES
 *********************************************************************
 *             PROGRAM:WRF/CHEM V3.6 MODEL
 *                                                                   *
 *    PLEASE REPORT ANY BUGS TO WRF/CHEM HELP at                     *
 *                                                                   *
 *              wrfchemhelp.gsd@noaa.gov                             *
 *                                                                   *
 *********************************************************************
 WARNING: dust option 1 currently works only with the GOCART aerosol option.
 WARNING: sea salt option 1 currently works only with the GOCART aerosol option.
Timing for Writing wrfout_d02_2016-02-05_12:00:00 for domain        2:    2.63607 elapsed seconds
  mediation_integrate: med_read_wrf_chem_emissions: Open file wrfchemi_12z_d02
  HOURLY EMISSIONS UPDATE TIME         .0        .0
 mediation_integrate: med_read_wrf_chem_emissions: Read emissions for time 2016-02-05_12:00:00
 **WARNING** Time in input file not being checked **WARNING**
  Tile Strategy is not specified. Assuming 1D-Y
 WRF TILE   1 IS      1 IE     45 JS      1 JE     26
 WRF NUMBER OF TILES =   1
  photolysis_driver: called for domain  2
Timing for Writing wrfout_d03_2016-02-05_12:00:00 for domain        3:    2.18030 elapsed seconds
  mediation_integrate: med_read_wrf_chem_emissions: Open file wrfchemi_12z_d03
  HOURLY EMISSIONS UPDATE TIME         .0        .0
 mediation_integrate: med_read_wrf_chem_emissions: Read emissions for time 2016-02-05_12:00:00
 **WARNING** Time in input file not being checked **WARNING**
  Tile Strategy is not specified. Assuming 1D-Y
 WRF TILE   1 IS      1 IE     39 JS      1 JE     24
 WRF NUMBER OF TILES =   1
  photolysis_driver: called for domain  3
Timing for main: time 2016-02-05_12:00:13 on domain   3:    8.15074 elapsed seconds
Timing for main: time 2016-02-05_12:00:26 on domain   3:     .53611 elapsed seconds
Timing for main: time 2016-02-05_12:00:40 on domain   3:     .51771 elapsed seconds
Timing for Writing wrfout_d04_2016-02-05_12:00:00 for domain        4:    2.33588 elapsed seconds
  mediation_integrate: med_read_wrf_chem_emissions: Open file wrfchemi_12z_d04
  HOURLY EMISSIONS UPDATE TIME         .0        .0
 mediation_integrate: med_read_wrf_chem_emissions: Read emissions for time 2016-02-05_12:00:00
 **WARNING** Time in input file not being checked **WARNING**
  Tile Strategy is not specified. Assuming 1D-Y
 WRF TILE   1 IS      1 IE     27 JS      1 JE     39
 WRF NUMBER OF TILES =   1
  photolysis_driver: called for domain  4
Timing for main: time 2016-02-05_12:00:20 on domain   4:    8.82759 elapsed seconds
Timing for main: time 2016-02-05_12:00:40 on domain   4:     .56880 elapsed seconds
Timing for main: time 2016-02-05_12:00:40 on domain   2:   49.71191 elapsed seconds
Timing for main: time 2016-02-05_12:00:53 on domain   3:     .52478 elapsed seconds
Timing for main: time 2016-02-05_12:01:06 on domain   3:     .51605 elapsed seconds
Timing for main: time 2016-02-05_12:01:20 on domain   3:     .51376 elapsed seconds
Timing for main: time 2016-02-05_12:01:00 on domain   4:     .62850 elapsed seconds
Timing for main: time 2016-02-05_12:01:20 on domain   4:     .62320 elapsed seconds
Timing for main: time 2016-02-05_12:01:20 on domain   2:    4.25707 elapsed seconds
Timing for main: time 2016-02-05_12:01:33 on domain   3:     .52584 elapsed seconds
Timing for main: time 2016-02-05_12:01:46 on domain   3:     .51457 elapsed seconds
Timing for main: time 2016-02-05_12:02:00 on domain   3:     .51505 elapsed seconds
Timing for main: time 2016-02-05_12:01:40 on domain   4:     .63021 elapsed seconds
Timing for main: time 2016-02-05_12:02:00 on domain   4:     .62303 elapsed seconds
Timing for main: time 2016-02-05_12:02:00 on domain   2:    4.37813 elapsed seconds
Timing for main: time 2016-02-05_12:02:00 on domain   1:   80.82458 elapsed seconds
Timing for main: time 2016-02-05_12:02:13 on domain   3:     .52684 elapsed seconds
Timing for main: time 2016-02-05_12:02:26 on domain   3:     .51491 elapsed seconds
Timing for main: time 2016-02-05_12:02:40 on domain   3:     .51639 elapsed seconds
Timing for main: time 2016-02-05_12:02:20 on domain   4:     .62770 elapsed seconds
Timing for main: time 2016-02-05_12:02:40 on domain   4:     .62371 elapsed seconds
Timing for main: time 2016-02-05_12:02:40 on domain   2:    4.40797 elapsed seconds
Timing for main: time 2016-02-05_12:02:53 on domain   3:     .52588 elapsed seconds
Timing for main: time 2016-02-05_12:03:06 on domain   3:     .51444 elapsed seconds
Timing for main: time 2016-02-05_12:03:20 on domain   3:     .51375 elapsed seconds
Timing for main: time 2016-02-05_12:03:00 on domain   4:     .62858 elapsed seconds
Timing for main: time 2016-02-05_12:03:20 on domain   4:     .62356 elapsed seconds
Timing for main: time 2016-02-05_12:03:20 on domain   2:    4.37252 elapsed seconds
Timing for main: time 2016-02-05_12:03:33 on domain   3:     .52854 elapsed seconds
Timing for main: time 2016-02-05_12:03:46 on domain   3:     .51437 elapsed seconds
Timing for main: time 2016-02-05_12:04:00 on domain   3:     .51442 elapsed seconds
Timing for main: time 2016-02-05_12:03:40 on domain   4:     .62912 elapsed seconds
Timing for main: time 2016-02-05_12:04:00 on domain   4:     .62312 elapsed seconds
Timing for main: time 2016-02-05_12:04:00 on domain   2:    4.37722 elapsed seconds
Timing for main: time 2016-02-05_12:04:00 on domain   1:   13.91091 elapsed seconds
Timing for main: time 2016-02-05_12:04:13 on domain   3:     .52597 elapsed seconds
Timing for main: time 2016-02-05_12:04:26 on domain   3:     .51467 elapsed seconds
Timing for main: time 2016-02-05_12:04:40 on domain   3:     .51506 elapsed seconds
Timing for main: time 2016-02-05_12:04:20 on domain   4:     .62697 elapsed seconds
Timing for main: time 2016-02-05_12:04:40 on domain   4:     .62345 elapsed seconds
Timing for main: time 2016-02-05_12:04:40 on domain   2:    4.40670 elapsed seconds
Timing for main: time 2016-02-05_12:04:53 on domain   3:     .52699 elapsed seconds
Timing for main: time 2016-02-05_12:05:06 on domain   3:     .53757 elapsed seconds
Timing for main: time 2016-02-05_12:05:20 on domain   3:     .51382 elapsed seconds
Timing for main: time 2016-02-05_12:05:00 on domain   4:     .65333 elapsed seconds
Timing for main: time 2016-02-05_12:05:20 on domain   4:     .62604 elapsed seconds
Timing for main: time 2016-02-05_12:05:20 on domain   2:    4.45139 elapsed seconds
Timing for main: time 2016-02-05_12:05:33 on domain   3:     .52611 elapsed seconds
Timing for main: time 2016-02-05_12:05:46 on domain   3:     .51473 elapsed seconds
Timing for main: time 2016-02-05_12:06:00 on domain   3:     .51320 elapsed seconds
Timing for main: time 2016-02-05_12:05:40 on domain   4:     .62745 elapsed seconds
Timing for main: time 2016-02-05_12:06:00 on domain   4:     .62253 elapsed seconds
Timing for main: time 2016-02-05_12:06:00 on domain   2:    4.37179 elapsed seconds
Timing for main: time 2016-02-05_12:06:00 on domain   1:   14.06580 elapsed seconds
Timing for main: time 2016-02-05_12:06:13 on domain   3:     .52620 elapsed seconds
Timing for main: time 2016-02-05_12:06:26 on domain   3:     .51732 elapsed seconds
Timing for main: time 2016-02-05_12:06:40 on domain   3:     .51026 elapsed seconds
Timing for main: time 2016-02-05_12:06:20 on domain   4:     .62881 elapsed seconds
Timing for main: time 2016-02-05_12:06:40 on domain   4:     .62405 elapsed seconds
Timing for main: time 2016-02-05_12:06:40 on domain   2:    4.41299 elapsed seconds
Timing for main: time 2016-02-05_12:06:53 on domain   3:     .52625 elapsed seconds
Timing for main: time 2016-02-05_12:07:06 on domain   3:     .51339 elapsed seconds
Timing for main: time 2016-02-05_12:07:20 on domain   3:     .51273 elapsed seconds
Timing for main: time 2016-02-05_12:07:00 on domain   4:     .62831 elapsed seconds
Timing for main: time 2016-02-05_12:07:20 on domain   4:     .62220 elapsed seconds
Timing for main: time 2016-02-05_12:07:20 on domain   2:    4.37023 elapsed seconds
Timing for main: time 2016-02-05_12:07:33 on domain   3:     .52598 elapsed seconds
Timing for main: time 2016-02-05_12:07:46 on domain   3:     .51517 elapsed seconds
Timing for main: time 2016-02-05_12:08:00 on domain   3:     .51412 elapsed seconds
Timing for main: time 2016-02-05_12:07:40 on domain   4:     .63414 elapsed seconds
Timing for main: time 2016-02-05_12:08:00 on domain   4:     .62250 elapsed seconds
Timing for main: time 2016-02-05_12:08:00 on domain   2:    4.37791 elapsed seconds
Timing for main: time 2016-02-05_12:08:00 on domain   1:   13.97229 elapsed seconds
Timing for main: time 2016-02-05_12:08:13 on domain   3:     .52597 elapsed seconds
Timing for main: time 2016-02-05_12:08:26 on domain   3:     .51383 elapsed seconds
Timing for main: time 2016-02-05_12:08:40 on domain   3:     .51415 elapsed seconds
Timing for main: time 2016-02-05_12:08:20 on domain   4:     .62678 elapsed seconds
Timing for main: time 2016-02-05_12:08:40 on domain   4:     .62283 elapsed seconds
Timing for main: time 2016-02-05_12:08:40 on domain   2:    4.39695 elapsed seconds
Timing for main: time 2016-02-05_12:08:53 on domain   3:     .52623 elapsed seconds
Timing for main: time 2016-02-05_12:09:06 on domain   3:     .56552 elapsed seconds
Timing for main: time 2016-02-05_12:09:20 on domain   3:     .57065 elapsed seconds
Timing for main: time 2016-02-05_12:09:00 on domain   4:     .63116 elapsed seconds
Timing for main: time 2016-02-05_12:09:20 on domain   4:     .61989 elapsed seconds
Timing for main: time 2016-02-05_12:09:20 on domain   2:    4.48471 elapsed seconds
Timing for main: time 2016-02-05_12:09:33 on domain   3:     .52886 elapsed seconds
Timing for main: time 2016-02-05_12:09:46 on domain   3:     .51459 elapsed seconds
Timing for main: time 2016-02-05_12:10:00 on domain   3:     .51420 elapsed seconds
Timing for main: time 2016-02-05_12:09:40 on domain   4:     .62926 elapsed seconds
Timing for main: time 2016-02-05_12:10:00 on domain   4:     .65045 elapsed seconds
Timing for main: time 2016-02-05_12:10:00 on domain   2:    4.40310 elapsed seconds
Timing for main: time 2016-02-05_12:10:00 on domain   1:   14.09727 elapsed seconds
Timing for main: time 2016-02-05_12:10:13 on domain   3:     .54833 elapsed seconds
Timing for main: time 2016-02-05_12:10:26 on domain   3:     .51387 elapsed seconds
Timing for main: time 2016-02-05_12:10:40 on domain   3:     .51671 elapsed seconds
Timing for main: time 2016-02-05_12:10:20 on domain   4:     .63008 elapsed seconds
Timing for main: time 2016-02-05_12:10:40 on domain   4:     .62323 elapsed seconds
Timing for main: time 2016-02-05_12:10:40 on domain   2:    4.45256 elapsed seconds
Timing for main: time 2016-02-05_12:10:53 on domain   3:     .52473 elapsed seconds
Timing for main: time 2016-02-05_12:11:06 on domain   3:     .51693 elapsed seconds
Timing for main: time 2016-02-05_12:11:20 on domain   3:     .51476 elapsed seconds
Timing for main: time 2016-02-05_12:11:00 on domain   4:     .62867 elapsed seconds
Timing for main: time 2016-02-05_12:11:20 on domain   4:     .62450 elapsed seconds
Timing for main: time 2016-02-05_12:11:20 on domain   2:    4.37519 elapsed seconds
Timing for main: time 2016-02-05_12:11:33 on domain   3:     .52672 elapsed seconds
Timing for main: time 2016-02-05_12:11:46 on domain   3:     .51208 elapsed seconds
Timing for main: time 2016-02-05_12:12:00 on domain   3:     .51455 elapsed seconds
Timing for main: time 2016-02-05_12:11:40 on domain   4:     .62825 elapsed seconds
Timing for main: time 2016-02-05_12:12:00 on domain   4:     .62379 elapsed seconds
Timing for main: time 2016-02-05_12:12:00 on domain   2:    4.37204 elapsed seconds
Timing for main: time 2016-02-05_12:12:00 on domain   1:   14.03501 elapsed seconds
Timing for main: time 2016-02-05_12:12:13 on domain   3:     .52758 elapsed seconds
Timing for main: time 2016-02-05_12:12:26 on domain   3:     .51625 elapsed seconds
Timing for main: time 2016-02-05_12:12:40 on domain   3:     .51651 elapsed seconds
Timing for main: time 2016-02-05_12:12:20 on domain   4:     .62861 elapsed seconds
Timing for main: time 2016-02-05_12:12:40 on domain   4:     .62389 elapsed seconds
Timing for main: time 2016-02-05_12:12:40 on domain   2:    4.40320 elapsed seconds
Timing for main: time 2016-02-05_12:12:53 on domain   3:     .52577 elapsed seconds
Timing for main: time 2016-02-05_12:13:06 on domain   3:     .51358 elapsed seconds
Timing for main: time 2016-02-05_12:13:20 on domain   3:     .52011 elapsed seconds
Timing for main: time 2016-02-05_12:13:00 on domain   4:     .62735 elapsed seconds
Timing for main: time 2016-02-05_12:13:20 on domain   4:     .62367 elapsed seconds
Timing for main: time 2016-02-05_12:13:20 on domain   2:    4.37679 elapsed seconds
Timing for main: time 2016-02-05_12:13:33 on domain   3:     .52536 elapsed seconds
Timing for main: time 2016-02-05_12:13:46 on domain   3:     .51452 elapsed seconds
Timing for main: time 2016-02-05_12:14:00 on domain   3:     .51396 elapsed seconds
Timing for main: time 2016-02-05_12:13:40 on domain   4:     .63126 elapsed seconds
Timing for main: time 2016-02-05_12:14:00 on domain   4:     .62387 elapsed seconds
Timing for main: time 2016-02-05_12:14:00 on domain   2:    4.37720 elapsed seconds
Timing for main: time 2016-02-05_12:14:00 on domain   1:   13.96924 elapsed seconds
Timing for main: time 2016-02-05_12:14:13 on domain   3:     .52622 elapsed seconds
Timing for main: time 2016-02-05_12:14:26 on domain   3:     .51344 elapsed seconds
Timing for main: time 2016-02-05_12:14:40 on domain   3:     .51473 elapsed seconds
Timing for main: time 2016-02-05_12:14:20 on domain   4:     .62864 elapsed seconds
Timing for main: time 2016-02-05_12:14:40 on domain   4:     .62308 elapsed seconds
Timing for main: time 2016-02-05_12:14:40 on domain   2:    4.39913 elapsed seconds
Timing for main: time 2016-02-05_12:14:53 on domain   3:     .52440 elapsed seconds
Timing for main: time 2016-02-05_12:15:06 on domain   3:     .51470 elapsed seconds
Timing for main: time 2016-02-05_12:15:20 on domain   3:     .53609 elapsed seconds
Timing for main: time 2016-02-05_12:15:00 on domain   4:     .65735 elapsed seconds
Timing for main: time 2016-02-05_12:15:20 on domain   4:     .62510 elapsed seconds
Timing for main: time 2016-02-05_12:15:20 on domain   2:    4.43362 elapsed seconds
Timing for main: time 2016-02-05_12:15:33 on domain   3:     .52559 elapsed seconds
Timing for main: time 2016-02-05_12:15:46 on domain   3:     .51496 elapsed seconds
Timing for main: time 2016-02-05_12:16:00 on domain   3:     .51253 elapsed seconds
Timing for main: time 2016-02-05_12:15:40 on domain   4:     .62894 elapsed seconds
Timing for main: time 2016-02-05_12:16:00 on domain   4:     .62377 elapsed seconds
Timing for main: time 2016-02-05_12:16:00 on domain   2:    4.40145 elapsed seconds
Timing for main: time 2016-02-05_12:16:00 on domain   1:   14.04575 elapsed seconds
Timing for main: time 2016-02-05_12:16:13 on domain   3:     .52431 elapsed seconds
Timing for main: time 2016-02-05_12:16:26 on domain   3:     .51721 elapsed seconds
Timing for main: time 2016-02-05_12:16:40 on domain   3:     .51509 elapsed seconds
Timing for main: time 2016-02-05_12:16:20 on domain   4:     .62992 elapsed seconds
Timing for main: time 2016-02-05_12:16:40 on domain   4:     .62463 elapsed seconds
Timing for main: time 2016-02-05_12:16:40 on domain   2:    4.40406 elapsed seconds
Timing for main: time 2016-02-05_12:16:53 on domain   3:     .52617 elapsed seconds
Timing for main: time 2016-02-05_12:17:06 on domain   3:     .51301 elapsed seconds
Timing for main: time 2016-02-05_12:17:20 on domain   3:     .51503 elapsed seconds
Timing for main: time 2016-02-05_12:17:00 on domain   4:     .63061 elapsed seconds
Timing for main: time 2016-02-05_12:17:20 on domain   4:     .62485 elapsed seconds
Timing for main: time 2016-02-05_12:17:20 on domain   2:    4.39652 elapsed seconds
Timing for main: time 2016-02-05_12:17:33 on domain   3:     .52536 elapsed seconds
Timing for main: time 2016-02-05_12:17:46 on domain   3:     .51481 elapsed seconds
Timing for main: time 2016-02-05_12:18:00 on domain   3:     .51444 elapsed seconds
Timing for main: time 2016-02-05_12:17:40 on domain   4:     .62989 elapsed seconds
Timing for main: time 2016-02-05_12:18:00 on domain   4:     .62553 elapsed seconds
Timing for main: time 2016-02-05_12:18:00 on domain   2:    4.37757 elapsed seconds
Timing for main: time 2016-02-05_12:18:00 on domain   1:   14.01017 elapsed seconds
Timing for main: time 2016-02-05_12:18:13 on domain   3:     .52565 elapsed seconds
Timing for main: time 2016-02-05_12:18:26 on domain   3:     .51477 elapsed seconds
Timing for main: time 2016-02-05_12:18:40 on domain   3:     .51298 elapsed seconds
Timing for main: time 2016-02-05_12:18:20 on domain   4:     .62918 elapsed seconds
Timing for main: time 2016-02-05_12:18:40 on domain   4:     .62349 elapsed seconds
Timing for main: time 2016-02-05_12:18:40 on domain   2:    4.40015 elapsed seconds
Timing for main: time 2016-02-05_12:18:53 on domain   3:     .52541 elapsed seconds
Timing for main: time 2016-02-05_12:19:06 on domain   3:     .51901 elapsed seconds
Timing for main: time 2016-02-05_12:19:20 on domain   3:     .51410 elapsed seconds
Timing for main: time 2016-02-05_12:19:00 on domain   4:     .62956 elapsed seconds
Timing for main: time 2016-02-05_12:19:20 on domain   4:     .62350 elapsed seconds
Timing for main: time 2016-02-05_12:19:20 on domain   2:    4.37840 elapsed seconds
Timing for main: time 2016-02-05_12:19:33 on domain   3:     .52569 elapsed seconds
Timing for main: time 2016-02-05_12:19:46 on domain   3:     .51328 elapsed seconds
Timing for main: time 2016-02-05_12:20:00 on domain   3:     .51400 elapsed seconds
Timing for main: time 2016-02-05_12:19:40 on domain   4:     .63122 elapsed seconds
Timing for main: time 2016-02-05_12:20:00 on domain   4:     .65065 elapsed seconds
Timing for main: time 2016-02-05_12:20:00 on domain   2:    4.40257 elapsed seconds
Timing for main: time 2016-02-05_12:20:00 on domain   1:   13.99545 elapsed seconds
Timing for main: time 2016-02-05_12:20:13 on domain   3:     .52609 elapsed seconds
Timing for main: time 2016-02-05_12:20:26 on domain   3:     .53620 elapsed seconds
Timing for main: time 2016-02-05_12:20:40 on domain   3:     .51403 elapsed seconds
Timing for main: time 2016-02-05_12:20:20 on domain   4:     .63004 elapsed seconds
Timing for main: time 2016-02-05_12:20:40 on domain   4:     .62604 elapsed seconds
Timing for main: time 2016-02-05_12:20:40 on domain   2:    4.42508 elapsed seconds
Timing for main: time 2016-02-05_12:20:53 on domain   3:     .52500 elapsed seconds
Timing for main: time 2016-02-05_12:21:06 on domain   3:     .51653 elapsed seconds
Timing for main: time 2016-02-05_12:21:20 on domain   3:     .51359 elapsed seconds
Timing for main: time 2016-02-05_12:21:00 on domain   4:     .62903 elapsed seconds
Timing for main: time 2016-02-05_12:21:20 on domain   4:     .62435 elapsed seconds
Timing for main: time 2016-02-05_12:21:20 on domain   2:    4.40393 elapsed seconds
Timing for main: time 2016-02-05_12:21:33 on domain   3:     .52586 elapsed seconds
Timing for main: time 2016-02-05_12:21:46 on domain   3:     .51414 elapsed seconds
Timing for main: time 2016-02-05_12:22:00 on domain   3:     .51490 elapsed seconds
Timing for main: time 2016-02-05_12:21:40 on domain   4:     .62996 elapsed seconds
Timing for main: time 2016-02-05_12:22:00 on domain   4:     .62358 elapsed seconds
Timing for main: time 2016-02-05_12:22:00 on domain   2:    4.37529 elapsed seconds
Timing for main: time 2016-02-05_12:22:00 on domain   1:   14.01525 elapsed seconds
Timing for main: time 2016-02-05_12:22:13 on domain   3:     .52561 elapsed seconds
Timing for main: time 2016-02-05_12:22:26 on domain   3:     .51655 elapsed seconds
Timing for main: time 2016-02-05_12:22:40 on domain   3:     .51521 elapsed seconds
Timing for main: time 2016-02-05_12:22:20 on domain   4:     .63032 elapsed seconds
Timing for main: time 2016-02-05_12:22:40 on domain   4:     .62794 elapsed seconds
Timing for main: time 2016-02-05_12:22:40 on domain   2:    4.40324 elapsed seconds
Timing for main: time 2016-02-05_12:22:53 on domain   3:     .52703 elapsed seconds
Timing for main: time 2016-02-05_12:23:06 on domain   3:     .51322 elapsed seconds
Timing for main: time 2016-02-05_12:23:20 on domain   3:     .51421 elapsed seconds
Timing for main: time 2016-02-05_12:23:00 on domain   4:     .63000 elapsed seconds
Timing for main: time 2016-02-05_12:23:20 on domain   4:     .63047 elapsed seconds
Timing for main: time 2016-02-05_12:23:20 on domain   2:    4.38271 elapsed seconds
Timing for main: time 2016-02-05_12:23:33 on domain   3:     .52548 elapsed seconds
Timing for main: time 2016-02-05_12:23:46 on domain   3:     .51490 elapsed seconds
Timing for main: time 2016-02-05_12:24:00 on domain   3:     .51397 elapsed seconds
Timing for main: time 2016-02-05_12:23:40 on domain   4:     .63258 elapsed seconds
Timing for main: time 2016-02-05_12:24:00 on domain   4:     .62588 elapsed seconds
Timing for main: time 2016-02-05_12:24:00 on domain   2:    4.38047 elapsed seconds
Timing for main: time 2016-02-05_12:24:00 on domain   1:   14.00179 elapsed seconds
Timing for main: time 2016-02-05_12:24:13 on domain   3:     .52569 elapsed seconds
Timing for main: time 2016-02-05_12:24:26 on domain   3:     .51372 elapsed seconds
Timing for main: time 2016-02-05_12:24:40 on domain   3:     .51379 elapsed seconds
Timing for main: time 2016-02-05_12:24:20 on domain   4:     .62906 elapsed seconds
Timing for main: time 2016-02-05_12:24:40 on domain   4:     .62455 elapsed seconds
Timing for main: time 2016-02-05_12:24:40 on domain   2:    4.39877 elapsed seconds
Timing for main: time 2016-02-05_12:24:53 on domain   3:     .53139 elapsed seconds
Timing for main: time 2016-02-05_12:25:06 on domain   3:     .51211 elapsed seconds
Timing for main: time 2016-02-05_12:25:20 on domain   3:     .51314 elapsed seconds
Timing for main: time 2016-02-05_12:25:00 on domain   4:     .65506 elapsed seconds
Timing for main: time 2016-02-05_12:25:20 on domain   4:     .62446 elapsed seconds
Timing for main: time 2016-02-05_12:25:20 on domain   2:    4.40241 elapsed seconds
Timing for main: time 2016-02-05_12:25:33 on domain   3:     .55093 elapsed seconds
Timing for main: time 2016-02-05_12:25:46 on domain   3:     .51388 elapsed seconds
Timing for main: time 2016-02-05_12:26:00 on domain   3:     .51482 elapsed seconds
Timing for main: time 2016-02-05_12:25:40 on domain   4:     .62816 elapsed seconds
Timing for main: time 2016-02-05_12:26:00 on domain   4:     .62396 elapsed seconds
Timing for main: time 2016-02-05_12:26:00 on domain   2:    4.39878 elapsed seconds
Timing for main: time 2016-02-05_12:26:00 on domain   1:   14.00780 elapsed seconds
Timing for main: time 2016-02-05_12:26:13 on domain   3:     .52644 elapsed seconds
Timing for main: time 2016-02-05_12:26:26 on domain   3:     .51361 elapsed seconds
Timing for main: time 2016-02-05_12:26:40 on domain   3:     .51315 elapsed seconds
Timing for main: time 2016-02-05_12:26:20 on domain   4:     .62918 elapsed seconds
Timing for main: time 2016-02-05_12:26:40 on domain   4:     .62481 elapsed seconds
Timing for main: time 2016-02-05_12:26:40 on domain   2:    4.42987 elapsed seconds
Timing for main: time 2016-02-05_12:26:53 on domain   3:     .56158 elapsed seconds
Timing for main: time 2016-02-05_12:27:06 on domain   3:     .51471 elapsed seconds
Timing for main: time 2016-02-05_12:27:20 on domain   3:     .51477 elapsed seconds
Timing for main: time 2016-02-05_12:27:00 on domain   4:     .62815 elapsed seconds
Timing for main: time 2016-02-05_12:27:20 on domain   4:     .62353 elapsed seconds
Timing for main: time 2016-02-05_12:27:20 on domain   2:    4.40961 elapsed seconds
Timing for main: time 2016-02-05_12:27:33 on domain   3:     .52629 elapsed seconds
Timing for main: time 2016-02-05_12:27:46 on domain   3:     .51740 elapsed seconds
Timing for main: time 2016-02-05_12:28:00 on domain   3:     .51457 elapsed seconds
Timing for main: time 2016-02-05_12:27:40 on domain   4:     .62915 elapsed seconds
Timing for main: time 2016-02-05_12:28:00 on domain   4:     .62521 elapsed seconds
Timing for main: time 2016-02-05_12:28:00 on domain   2:    4.37901 elapsed seconds
Timing for main: time 2016-02-05_12:28:00 on domain   1:   14.02721 elapsed seconds
  photolysis_driver: called for domain  1
Timing for main: time 2016-02-05_12:28:13 on domain   3:     .52571 elapsed seconds
Timing for main: time 2016-02-05_12:28:26 on domain   3:     .51353 elapsed seconds
Timing for main: time 2016-02-05_12:28:40 on domain   3:     .51491 elapsed seconds
Timing for main: time 2016-02-05_12:28:20 on domain   4:     .62837 elapsed seconds
Timing for main: time 2016-02-05_12:28:40 on domain   4:     .62438 elapsed seconds
Timing for main: time 2016-02-05_12:28:40 on domain   2:    4.39877 elapsed seconds
Timing for main: time 2016-02-05_12:28:53 on domain   3:     .52577 elapsed seconds
Timing for main: time 2016-02-05_12:29:06 on domain   3:     .51664 elapsed seconds
Timing for main: time 2016-02-05_12:29:20 on domain   3:     .51224 elapsed seconds
Timing for main: time 2016-02-05_12:29:00 on domain   4:     .62896 elapsed seconds
Timing for main: time 2016-02-05_12:29:20 on domain   4:     .62800 elapsed seconds
Timing for main: time 2016-02-05_12:29:20 on domain   2:    4.37982 elapsed seconds
  photolysis_driver: called for domain  2
Timing for main: time 2016-02-05_12:29:33 on domain   3:     .52616 elapsed seconds
Timing for main: time 2016-02-05_12:29:46 on domain   3:     .51520 elapsed seconds
  photolysis_driver: called for domain  3
Timing for main: time 2016-02-05_12:30:00 on domain   3:    2.96782 elapsed seconds
Timing for main: time 2016-02-05_12:29:40 on domain   4:     .62833 elapsed seconds
  photolysis_driver: called for domain  4
Timing for main: time 2016-02-05_12:30:00 on domain   4:    3.49069 elapsed seconds
Timing for main: time 2016-02-05_12:30:00 on domain   2:   12.79711 elapsed seconds
Timing for main: time 2016-02-05_12:30:00 on domain   1:   24.21650 elapsed seconds
Timing for main: time 2016-02-05_12:30:13 on domain   3:    1.02330 elapsed seconds
Timing for main: time 2016-02-05_12:30:26 on domain   3:     .51338 elapsed seconds
Timing for main: time 2016-02-05_12:30:40 on domain   3:     .53133 elapsed seconds
Timing for main: time 2016-02-05_12:30:20 on domain   4:    1.19898 elapsed seconds
Timing for main: time 2016-02-05_12:30:40 on domain   4:     .62251 elapsed seconds
Timing for main: time 2016-02-05_12:30:40 on domain   2:    6.12103 elapsed seconds
Timing for main: time 2016-02-05_12:30:53 on domain   3:     .52428 elapsed seconds
Timing for main: time 2016-02-05_12:31:06 on domain   3:     .51042 elapsed seconds
Timing for main: time 2016-02-05_12:31:20 on domain   3:     .51139 elapsed seconds
Timing for main: time 2016-02-05_12:31:00 on domain   4:     .62573 elapsed seconds
Timing for main: time 2016-02-05_12:31:20 on domain   4:     .62175 elapsed seconds
Timing for main: time 2016-02-05_12:31:20 on domain   2:    4.35839 elapsed seconds
Timing for main: time 2016-02-05_12:31:33 on domain   3:     .52367 elapsed seconds
Timing for main: time 2016-02-05_12:31:46 on domain   3:     .51341 elapsed seconds
Timing for main: time 2016-02-05_12:32:00 on domain   3:     .51198 elapsed seconds
Timing for main: time 2016-02-05_12:31:40 on domain   4:     .62617 elapsed seconds
Timing for main: time 2016-02-05_12:32:00 on domain   4:     .62293 elapsed seconds
Timing for main: time 2016-02-05_12:32:00 on domain   2:    4.39156 elapsed seconds
Timing for main: time 2016-02-05_12:32:00 on domain   1:   16.18823 elapsed seconds
Timing for main: time 2016-02-05_12:32:13 on domain   3:     .52431 elapsed seconds
Timing for main: time 2016-02-05_12:32:26 on domain   3:     .51362 elapsed seconds
Timing for main: time 2016-02-05_12:32:40 on domain   3:     .51089 elapsed seconds
Timing for main: time 2016-02-05_12:32:20 on domain   4:     .62465 elapsed seconds
Timing for main: time 2016-02-05_12:32:40 on domain   4:     .61955 elapsed seconds
Timing for main: time 2016-02-05_12:32:40 on domain   2:    4.40529 elapsed seconds
Timing for main: time 2016-02-05_12:32:53 on domain   3:     .52543 elapsed seconds
Timing for main: time 2016-02-05_12:33:06 on domain   3:     .51180 elapsed seconds
Timing for main: time 2016-02-05_12:33:20 on domain   3:     .51276 elapsed seconds
Timing for main: time 2016-02-05_12:33:00 on domain   4:     .62472 elapsed seconds
Timing for main: time 2016-02-05_12:33:20 on domain   4:     .62193 elapsed seconds
Timing for main: time 2016-02-05_12:33:20 on domain   2:    4.36753 elapsed seconds
Timing for main: time 2016-02-05_12:33:33 on domain   3:     .52273 elapsed seconds
Timing for main: time 2016-02-05_12:33:46 on domain   3:     .51130 elapsed seconds
Timing for main: time 2016-02-05_12:34:00 on domain   3:     .51251 elapsed seconds
Timing for main: time 2016-02-05_12:33:40 on domain   4:     .62390 elapsed seconds
Timing for main: time 2016-02-05_12:34:00 on domain   4:     .62184 elapsed seconds
Timing for main: time 2016-02-05_12:34:00 on domain   2:    4.35696 elapsed seconds
Timing for main: time 2016-02-05_12:34:00 on domain   1:   13.94133 elapsed seconds
Timing for main: time 2016-02-05_12:34:13 on domain   3:     .52399 elapsed seconds
Timing for main: time 2016-02-05_12:34:26 on domain   3:     .51032 elapsed seconds
Timing for main: time 2016-02-05_12:34:40 on domain   3:     .51446 elapsed seconds
Timing for main: time 2016-02-05_12:34:20 on domain   4:     .62869 elapsed seconds
Timing for main: time 2016-02-05_12:34:40 on domain   4:     .62017 elapsed seconds
Timing for main: time 2016-02-05_12:34:40 on domain   2:    4.38378 elapsed seconds
Timing for main: time 2016-02-05_12:34:53 on domain   3:     .52398 elapsed seconds
Timing for main: time 2016-02-05_12:35:06 on domain   3:     .51220 elapsed seconds
Timing for main: time 2016-02-05_12:35:20 on domain   3:     .51134 elapsed seconds
Timing for main: time 2016-02-05_12:35:00 on domain   4:     .65424 elapsed seconds
Timing for main: time 2016-02-05_12:35:20 on domain   4:     .62029 elapsed seconds
Timing for main: time 2016-02-05_12:35:20 on domain   2:    4.38800 elapsed seconds
Timing for main: time 2016-02-05_12:35:33 on domain   3:     .52346 elapsed seconds
Timing for main: time 2016-02-05_12:35:46 on domain   3:     .53284 elapsed seconds
Timing for main: time 2016-02-05_12:36:00 on domain   3:     .51303 elapsed seconds
Timing for main: time 2016-02-05_12:35:40 on domain   4:     .62359 elapsed seconds
Timing for main: time 2016-02-05_12:36:00 on domain   4:     .62360 elapsed seconds
Timing for main: time 2016-02-05_12:36:00 on domain   2:    4.37995 elapsed seconds
Timing for main: time 2016-02-05_12:36:00 on domain   1:   13.98402 elapsed seconds
Timing for main: time 2016-02-05_12:36:13 on domain   3:     .52402 elapsed seconds
Timing for main: time 2016-02-05_12:36:26 on domain   3:     .51483 elapsed seconds
Timing for main: time 2016-02-05_12:36:40 on domain   3:     .51130 elapsed seconds
Timing for main: time 2016-02-05_12:36:20 on domain   4:     .62350 elapsed seconds
Timing for main: time 2016-02-05_12:36:40 on domain   4:     .62333 elapsed seconds
Timing for main: time 2016-02-05_12:36:40 on domain   2:    4.38380 elapsed seconds
Timing for main: time 2016-02-05_12:36:53 on domain   3:     .52298 elapsed seconds
Timing for main: time 2016-02-05_12:37:06 on domain   3:     .51113 elapsed seconds
Timing for main: time 2016-02-05_12:37:20 on domain   3:     .51120 elapsed seconds
Timing for main: time 2016-02-05_12:37:00 on domain   4:     .62370 elapsed seconds
Timing for main: time 2016-02-05_12:37:20 on domain   4:     .62235 elapsed seconds
Timing for main: time 2016-02-05_12:37:20 on domain   2:    4.38726 elapsed seconds
Timing for main: time 2016-02-05_12:37:33 on domain   3:     .60167 elapsed seconds
Timing for main: time 2016-02-05_12:37:46 on domain   3:     .50107 elapsed seconds
Timing for main: time 2016-02-05_12:38:00 on domain   3:     .51231 elapsed seconds
Timing for main: time 2016-02-05_12:37:40 on domain   4:     .62526 elapsed seconds
Timing for main: time 2016-02-05_12:38:00 on domain   4:     .62163 elapsed seconds
Timing for main: time 2016-02-05_12:38:00 on domain   2:    4.45081 elapsed seconds
Timing for main: time 2016-02-05_12:38:00 on domain   1:   14.03591 elapsed seconds
Timing for main: time 2016-02-05_12:38:13 on domain   3:     .52223 elapsed seconds
Timing for main: time 2016-02-05_12:38:26 on domain   3:     .51075 elapsed seconds
Timing for main: time 2016-02-05_12:38:40 on domain   3:     .51370 elapsed seconds
Timing for main: time 2016-02-05_12:38:20 on domain   4:     .62457 elapsed seconds
Timing for main: time 2016-02-05_12:38:40 on domain   4:     .62729 elapsed seconds
Timing for main: time 2016-02-05_12:38:40 on domain   2:    4.38496 elapsed seconds
Timing for main: time 2016-02-05_12:38:53 on domain   3:     .52333 elapsed seconds
Timing for main: time 2016-02-05_12:39:06 on domain   3:     .50989 elapsed seconds
Timing for main: time 2016-02-05_12:39:20 on domain   3:     .51222 elapsed seconds
Timing for main: time 2016-02-05_12:39:00 on domain   4:     .62916 elapsed seconds
Timing for main: time 2016-02-05_12:39:20 on domain   4:     .62064 elapsed seconds
Timing for main: time 2016-02-05_12:39:20 on domain   2:    4.36662 elapsed seconds
Timing for main: time 2016-02-05_12:39:33 on domain   3:     .52209 elapsed seconds
Timing for main: time 2016-02-05_12:39:46 on domain   3:     .51120 elapsed seconds
Timing for main: time 2016-02-05_12:40:00 on domain   3:     .51091 elapsed seconds
Timing for main: time 2016-02-05_12:39:40 on domain   4:     .62538 elapsed seconds
Timing for main: time 2016-02-05_12:40:00 on domain   4:     .64835 elapsed seconds
Timing for main: time 2016-02-05_12:40:00 on domain   2:    4.38361 elapsed seconds
Timing for main: time 2016-02-05_12:40:00 on domain   1:   13.94691 elapsed seconds
Timing for main: time 2016-02-05_12:40:13 on domain   3:     .52712 elapsed seconds
Timing for main: time 2016-02-05_12:40:26 on domain   3:     .51224 elapsed seconds
Timing for main: time 2016-02-05_12:40:40 on domain   3:     .51023 elapsed seconds
Timing for main: time 2016-02-05_12:40:20 on domain   4:     .62528 elapsed seconds
Timing for main: time 2016-02-05_12:40:40 on domain   4:     .62284 elapsed seconds
Timing for main: time 2016-02-05_12:40:40 on domain   2:    4.38525 elapsed seconds
Timing for main: time 2016-02-05_12:40:53 on domain   3:     .54583 elapsed seconds
Timing for main: time 2016-02-05_12:41:06 on domain   3:     .50985 elapsed seconds
Timing for main: time 2016-02-05_12:41:20 on domain   3:     .51221 elapsed seconds
Timing for main: time 2016-02-05_12:41:00 on domain   4:     .62518 elapsed seconds
Timing for main: time 2016-02-05_12:41:20 on domain   4:     .62102 elapsed seconds
Timing for main: time 2016-02-05_12:41:20 on domain   2:    4.37818 elapsed seconds
Timing for main: time 2016-02-05_12:41:33 on domain   3:     .52138 elapsed seconds
Timing for main: time 2016-02-05_12:41:46 on domain   3:     .51186 elapsed seconds
Timing for main: time 2016-02-05_12:42:00 on domain   3:     .51053 elapsed seconds
Timing for main: time 2016-02-05_12:41:40 on domain   4:     .62324 elapsed seconds
Timing for main: time 2016-02-05_12:42:00 on domain   4:     .62173 elapsed seconds
Timing for main: time 2016-02-05_12:42:00 on domain   2:    4.35994 elapsed seconds
Timing for main: time 2016-02-05_12:42:00 on domain   1:   13.95431 elapsed seconds
Timing for main: time 2016-02-05_12:42:13 on domain   3:     .52274 elapsed seconds
Timing for main: time 2016-02-05_12:42:26 on domain   3:     .51118 elapsed seconds
Timing for main: time 2016-02-05_12:42:40 on domain   3:     .51055 elapsed seconds
Timing for main: time 2016-02-05_12:42:20 on domain   4:     .62603 elapsed seconds
Timing for main: time 2016-02-05_12:42:40 on domain   4:     .62202 elapsed seconds
Timing for main: time 2016-02-05_12:42:40 on domain   2:    4.40814 elapsed seconds
Timing for main: time 2016-02-05_12:42:53 on domain   3:     .52272 elapsed seconds
Timing for main: time 2016-02-05_12:43:06 on domain   3:     .56978 elapsed seconds
Timing for main: time 2016-02-05_12:43:20 on domain   3:     .55997 elapsed seconds
Timing for main: time 2016-02-05_12:43:00 on domain   4:     .62646 elapsed seconds
Timing for main: time 2016-02-05_12:43:20 on domain   4:     .62140 elapsed seconds
Timing for main: time 2016-02-05_12:43:20 on domain   2:    4.46323 elapsed seconds
Timing for main: time 2016-02-05_12:43:33 on domain   3:     .52649 elapsed seconds
Timing for main: time 2016-02-05_12:43:46 on domain   3:     .51194 elapsed seconds
Timing for main: time 2016-02-05_12:44:00 on domain   3:     .51171 elapsed seconds
Timing for main: time 2016-02-05_12:43:40 on domain   4:     .62614 elapsed seconds
Timing for main: time 2016-02-05_12:44:00 on domain   4:     .62269 elapsed seconds
Timing for main: time 2016-02-05_12:44:00 on domain   2:    4.36374 elapsed seconds
Timing for main: time 2016-02-05_12:44:00 on domain   1:   14.04720 elapsed seconds
Timing for main: time 2016-02-05_12:44:13 on domain   3:     .52396 elapsed seconds
Timing for main: time 2016-02-05_12:44:26 on domain   3:     .51188 elapsed seconds
Timing for main: time 2016-02-05_12:44:40 on domain   3:     .51249 elapsed seconds
Timing for main: time 2016-02-05_12:44:20 on domain   4:     .62996 elapsed seconds
Timing for main: time 2016-02-05_12:44:40 on domain   4:     .62288 elapsed seconds
Timing for main: time 2016-02-05_12:44:40 on domain   2:    4.38825 elapsed seconds
Timing for main: time 2016-02-05_12:44:53 on domain   3:     .52465 elapsed seconds
Timing for main: time 2016-02-05_12:45:06 on domain   3:     .51063 elapsed seconds
Timing for main: time 2016-02-05_12:45:20 on domain   3:     .51065 elapsed seconds
Timing for main: time 2016-02-05_12:45:00 on domain   4:     .65165 elapsed seconds
Timing for main: time 2016-02-05_12:45:20 on domain   4:     .62121 elapsed seconds
Timing for main: time 2016-02-05_12:45:20 on domain   2:    4.38328 elapsed seconds
Timing for main: time 2016-02-05_12:45:33 on domain   3:     .52217 elapsed seconds
Timing for main: time 2016-02-05_12:45:46 on domain   3:     .51174 elapsed seconds
Timing for main: time 2016-02-05_12:46:00 on domain   3:     .53209 elapsed seconds
Timing for main: time 2016-02-05_12:45:40 on domain   4:     .62592 elapsed seconds
Timing for main: time 2016-02-05_12:46:00 on domain   4:     .62183 elapsed seconds
Timing for main: time 2016-02-05_12:46:00 on domain   2:    4.37849 elapsed seconds
Timing for main: time 2016-02-05_12:46:00 on domain   1:   13.96139 elapsed seconds
Timing for main: time 2016-02-05_12:46:13 on domain   3:     .52269 elapsed seconds
Timing for main: time 2016-02-05_12:46:26 on domain   3:     .51482 elapsed seconds
Timing for main: time 2016-02-05_12:46:40 on domain   3:     .51100 elapsed seconds
Timing for main: time 2016-02-05_12:46:20 on domain   4:     .62618 elapsed seconds
Timing for main: time 2016-02-05_12:46:40 on domain   4:     .62238 elapsed seconds
Timing for main: time 2016-02-05_12:46:40 on domain   2:    4.38378 elapsed seconds
Timing for main: time 2016-02-05_12:46:53 on domain   3:     .52238 elapsed seconds
Timing for main: time 2016-02-05_12:47:06 on domain   3:     .51102 elapsed seconds
Timing for main: time 2016-02-05_12:47:20 on domain   3:     .51167 elapsed seconds
Timing for main: time 2016-02-05_12:47:00 on domain   4:     .62583 elapsed seconds
Timing for main: time 2016-02-05_12:47:20 on domain   4:     .62380 elapsed seconds
Timing for main: time 2016-02-05_12:47:20 on domain   2:    4.35844 elapsed seconds
Timing for main: time 2016-02-05_12:47:33 on domain   3:     .52123 elapsed seconds
Timing for main: time 2016-02-05_12:47:46 on domain   3:     .51323 elapsed seconds
Timing for main: time 2016-02-05_12:48:00 on domain   3:     .51185 elapsed seconds
Timing for main: time 2016-02-05_12:47:40 on domain   4:     .62725 elapsed seconds
Timing for main: time 2016-02-05_12:48:00 on domain   4:     .62212 elapsed seconds
Timing for main: time 2016-02-05_12:48:00 on domain   2:    4.39253 elapsed seconds
Timing for main: time 2016-02-05_12:48:00 on domain   1:   13.96348 elapsed seconds
Timing for main: time 2016-02-05_12:48:13 on domain   3:     .52259 elapsed seconds
Timing for main: time 2016-02-05_12:48:26 on domain   3:     .51048 elapsed seconds
Timing for main: time 2016-02-05_12:48:40 on domain   3:     .51082 elapsed seconds
Timing for main: time 2016-02-05_12:48:20 on domain   4:     .62476 elapsed seconds
Timing for main: time 2016-02-05_12:48:40 on domain   4:     .62215 elapsed seconds
Timing for main: time 2016-02-05_12:48:40 on domain   2:    4.37875 elapsed seconds
Timing for main: time 2016-02-05_12:48:53 on domain   3:     .52275 elapsed seconds
Timing for main: time 2016-02-05_12:49:06 on domain   3:     .51112 elapsed seconds
Timing for main: time 2016-02-05_12:49:20 on domain   3:     .51180 elapsed seconds
Timing for main: time 2016-02-05_12:49:00 on domain   4:     .62631 elapsed seconds
Timing for main: time 2016-02-05_12:49:20 on domain   4:     .62190 elapsed seconds
Timing for main: time 2016-02-05_12:49:20 on domain   2:    4.35896 elapsed seconds
Timing for main: time 2016-02-05_12:49:33 on domain   3:     .52286 elapsed seconds
Timing for main: time 2016-02-05_12:49:46 on domain   3:     .51080 elapsed seconds
Timing for main: time 2016-02-05_12:50:00 on domain   3:     .51153 elapsed seconds
Timing for main: time 2016-02-05_12:49:40 on domain   4:     .62584 elapsed seconds
Timing for main: time 2016-02-05_12:50:00 on domain   4:     .64793 elapsed seconds
Timing for main: time 2016-02-05_12:50:00 on domain   2:    4.38420 elapsed seconds
Timing for main: time 2016-02-05_12:50:00 on domain   1:   13.93252 elapsed seconds
Timing for main: time 2016-02-05_12:50:13 on domain   3:     .52509 elapsed seconds
Timing for main: time 2016-02-05_12:50:26 on domain   3:     .51417 elapsed seconds
Timing for main: time 2016-02-05_12:50:40 on domain   3:     .51136 elapsed seconds
Timing for main: time 2016-02-05_12:50:20 on domain   4:     .62823 elapsed seconds
Timing for main: time 2016-02-05_12:50:40 on domain   4:     .62472 elapsed seconds
Timing for main: time 2016-02-05_12:50:40 on domain   2:    4.49519 elapsed seconds
Timing for main: time 2016-02-05_12:50:53 on domain   3:     .52414 elapsed seconds
Timing for main: time 2016-02-05_12:51:06 on domain   3:     .53466 elapsed seconds
Timing for main: time 2016-02-05_12:51:20 on domain   3:     .51289 elapsed seconds
Timing for main: time 2016-02-05_12:51:00 on domain   4:     .62721 elapsed seconds
Timing for main: time 2016-02-05_12:51:20 on domain   4:     .62095 elapsed seconds
Timing for main: time 2016-02-05_12:51:20 on domain   2:    4.38331 elapsed seconds
Timing for main: time 2016-02-05_12:51:33 on domain   3:     .52734 elapsed seconds
Timing for main: time 2016-02-05_12:51:46 on domain   3:     .51174 elapsed seconds
Timing for main: time 2016-02-05_12:52:00 on domain   3:     .51258 elapsed seconds
Timing for main: time 2016-02-05_12:51:40 on domain   4:     .62423 elapsed seconds
Timing for main: time 2016-02-05_12:52:00 on domain   4:     .62100 elapsed seconds
Timing for main: time 2016-02-05_12:52:00 on domain   2:    4.36220 elapsed seconds
Timing for main: time 2016-02-05_12:52:00 on domain   1:   14.05179 elapsed seconds
Timing for main: time 2016-02-05_12:52:13 on domain   3:     .52269 elapsed seconds
Timing for main: time 2016-02-05_12:52:26 on domain   3:     .51270 elapsed seconds
Timing for main: time 2016-02-05_12:52:40 on domain   3:     .51158 elapsed seconds
Timing for main: time 2016-02-05_12:52:20 on domain   4:     .62769 elapsed seconds
Timing for main: time 2016-02-05_12:52:40 on domain   4:     .62292 elapsed seconds
Timing for main: time 2016-02-05_12:52:40 on domain   2:    4.38636 elapsed seconds
Timing for main: time 2016-02-05_12:52:53 on domain   3:     .52459 elapsed seconds
Timing for main: time 2016-02-05_12:53:06 on domain   3:     .51229 elapsed seconds
Timing for main: time 2016-02-05_12:53:20 on domain   3:     .51228 elapsed seconds
Timing for main: time 2016-02-05_12:53:00 on domain   4:     .62812 elapsed seconds
Timing for main: time 2016-02-05_12:53:20 on domain   4:     .62213 elapsed seconds
Timing for main: time 2016-02-05_12:53:20 on domain   2:    4.39025 elapsed seconds
Timing for main: time 2016-02-05_12:53:33 on domain   3:     .52802 elapsed seconds
Timing for main: time 2016-02-05_12:53:46 on domain   3:     .51230 elapsed seconds
Timing for main: time 2016-02-05_12:54:00 on domain   3:     .51191 elapsed seconds
Timing for main: time 2016-02-05_12:53:40 on domain   4:     .62755 elapsed seconds
Timing for main: time 2016-02-05_12:54:00 on domain   4:     .62192 elapsed seconds
Timing for main: time 2016-02-05_12:54:00 on domain   2:    4.36583 elapsed seconds
Timing for main: time 2016-02-05_12:54:00 on domain   1:   13.97290 elapsed seconds
Timing for main: time 2016-02-05_12:54:13 on domain   3:     .52678 elapsed seconds
Timing for main: time 2016-02-05_12:54:26 on domain   3:     .51253 elapsed seconds
Timing for main: time 2016-02-05_12:54:40 on domain   3:     .51154 elapsed seconds
Timing for main: time 2016-02-05_12:54:20 on domain   4:     .62852 elapsed seconds
Timing for main: time 2016-02-05_12:54:40 on domain   4:     .62051 elapsed seconds
Timing for main: time 2016-02-05_12:54:40 on domain   2:    4.38588 elapsed seconds
Timing for main: time 2016-02-05_12:54:53 on domain   3:     .52399 elapsed seconds
Timing for main: time 2016-02-05_12:55:06 on domain   3:     .51215 elapsed seconds
Timing for main: time 2016-02-05_12:55:20 on domain   3:     .51292 elapsed seconds
Timing for main: time 2016-02-05_12:55:00 on domain   4:     .65289 elapsed seconds
Timing for main: time 2016-02-05_12:55:20 on domain   4:     .62297 elapsed seconds
Timing for main: time 2016-02-05_12:55:20 on domain   2:    4.38876 elapsed seconds
Timing for main: time 2016-02-05_12:55:33 on domain   3:     .52439 elapsed seconds
Timing for main: time 2016-02-05_12:55:46 on domain   3:     .51197 elapsed seconds
Timing for main: time 2016-02-05_12:56:00 on domain   3:     .51248 elapsed seconds
Timing for main: time 2016-02-05_12:55:40 on domain   4:     .62661 elapsed seconds
Timing for main: time 2016-02-05_12:56:00 on domain   4:     .62688 elapsed seconds
Timing for main: time 2016-02-05_12:56:00 on domain   2:    4.36571 elapsed seconds
Timing for main: time 2016-02-05_12:56:00 on domain   1:   13.95113 elapsed seconds
Timing for main: time 2016-02-05_12:56:13 on domain   3:     .54551 elapsed seconds
Timing for main: time 2016-02-05_12:56:26 on domain   3:     .51493 elapsed seconds
Timing for main: time 2016-02-05_12:56:40 on domain   3:     .51212 elapsed seconds
Timing for main: time 2016-02-05_12:56:20 on domain   4:     .62634 elapsed seconds
Timing for main: time 2016-02-05_12:56:40 on domain   4:     .62196 elapsed seconds
Timing for main: time 2016-02-05_12:56:40 on domain   2:    4.40336 elapsed seconds
Timing for main: time 2016-02-05_12:56:53 on domain   3:     .52434 elapsed seconds
Timing for main: time 2016-02-05_12:57:06 on domain   3:     .51196 elapsed seconds
Timing for main: time 2016-02-05_12:57:20 on domain   3:     .51274 elapsed seconds
Timing for main: time 2016-02-05_12:57:00 on domain   4:     .62651 elapsed seconds
Timing for main: time 2016-02-05_12:57:20 on domain   4:     .62225 elapsed seconds
Timing for main: time 2016-02-05_12:57:20 on domain   2:    4.36051 elapsed seconds
Timing for main: time 2016-02-05_12:57:33 on domain   3:     .52617 elapsed seconds
Timing for main: time 2016-02-05_12:57:46 on domain   3:     .51206 elapsed seconds
Timing for main: time 2016-02-05_12:58:00 on domain   3:     .51290 elapsed seconds
Timing for main: time 2016-02-05_12:57:40 on domain   4:     .62862 elapsed seconds
Timing for main: time 2016-02-05_12:58:00 on domain   4:     .62286 elapsed seconds
Timing for main: time 2016-02-05_12:58:00 on domain   2:    4.36740 elapsed seconds
Timing for main: time 2016-02-05_12:58:00 on domain   1:   13.95076 elapsed seconds
  photolysis_driver: called for domain  1
Timing for main: time 2016-02-05_12:58:13 on domain   3:     .52428 elapsed seconds
Timing for main: time 2016-02-05_12:58:26 on domain   3:     .51232 elapsed seconds
Timing for main: time 2016-02-05_12:58:40 on domain   3:     .51103 elapsed seconds
Timing for main: time 2016-02-05_12:58:20 on domain   4:     .62571 elapsed seconds
Timing for main: time 2016-02-05_12:58:40 on domain   4:     .62406 elapsed seconds
Timing for main: time 2016-02-05_12:58:40 on domain   2:    4.41407 elapsed seconds
Timing for main: time 2016-02-05_12:58:53 on domain   3:     .52312 elapsed seconds
Timing for main: time 2016-02-05_12:59:06 on domain   3:     .51274 elapsed seconds
Timing for main: time 2016-02-05_12:59:20 on domain   3:     .51128 elapsed seconds
Timing for main: time 2016-02-05_12:59:00 on domain   4:     .62490 elapsed seconds
Timing for main: time 2016-02-05_12:59:20 on domain   4:     .62165 elapsed seconds
Timing for main: time 2016-02-05_12:59:20 on domain   2:    4.35924 elapsed seconds
  photolysis_driver: called for domain  2
Timing for main: time 2016-02-05_12:59:33 on domain   3:     .52390 elapsed seconds
Timing for main: time 2016-02-05_12:59:46 on domain   3:     .51092 elapsed seconds
  photolysis_driver: called for domain  3
Timing for main: time 2016-02-05_13:00:00 on domain   3:    2.96575 elapsed seconds
Timing for main: time 2016-02-05_12:59:40 on domain   4:     .73185 elapsed seconds
  photolysis_driver: called for domain  4
Timing for main: time 2016-02-05_13:00:00 on domain   4:    3.51962 elapsed seconds
Timing for main: time 2016-02-05_13:00:00 on domain   2:   12.92595 elapsed seconds
Timing for main: time 2016-02-05_13:00:00 on domain   1:   24.34155 elapsed seconds
Timing for Writing wrfout_d01_2016-02-05_13:00:00 for domain        1:    1.66581 elapsed seconds
  HOURLY EMISSIONS UPDATE TIME     3600.0        .0
 mediation_integrate: med_read_wrf_chem_emissions: Read emissions for time 2016-02-05_13:00:00
 **WARNING** Time in input file not being checked **WARNING**
Timing for Writing wrfout_d02_2016-02-05_13:00:00 for domain        2:    2.46204 elapsed seconds
Timing for Writing wrfout_d03_2016-02-05_13:00:00 for domain        3:    2.12294 elapsed seconds
Timing for main: time 2016-02-05_13:00:13 on domain   3:    3.31601 elapsed seconds
Timing for main: time 2016-02-05_13:00:26 on domain   3:     .52737 elapsed seconds
Timing for main: time 2016-02-05_13:00:40 on domain   3:     .51205 elapsed seconds
Timing for Writing wrfout_d04_2016-02-05_13:00:00 for domain        4:    2.31697 elapsed seconds
Timing for main: time 2016-02-05_13:00:20 on domain   4:    3.80987 elapsed seconds
Timing for main: time 2016-02-05_13:00:40 on domain   4:     .62281 elapsed seconds
Timing for main: time 2016-02-05_13:00:40 on domain   2:   13.69687 elapsed seconds
Timing for main: time 2016-02-05_13:00:53 on domain   3:     .52522 elapsed seconds
Timing for main: time 2016-02-05_13:01:06 on domain   3:     .51361 elapsed seconds
Timing for main: time 2016-02-05_13:01:20 on domain   3:     .53611 elapsed seconds
Timing for main: time 2016-02-05_13:01:00 on domain   4:     .62934 elapsed seconds
Timing for main: time 2016-02-05_13:01:20 on domain   4:     .62454 elapsed seconds
Timing for main: time 2016-02-05_13:01:20 on domain   2:    4.39416 elapsed seconds
Timing for main: time 2016-02-05_13:01:33 on domain   3:     .52283 elapsed seconds
Timing for main: time 2016-02-05_13:01:46 on domain   3:     .51180 elapsed seconds
Timing for main: time 2016-02-05_13:02:00 on domain   3:     .51571 elapsed seconds
Timing for main: time 2016-02-05_13:01:40 on domain   4:     .62658 elapsed seconds
Timing for main: time 2016-02-05_13:02:00 on domain   4:     .62149 elapsed seconds
Timing for main: time 2016-02-05_13:02:00 on domain   2:    4.36018 elapsed seconds
Timing for main: time 2016-02-05_13:02:00 on domain   1:   26.58127 elapsed seconds
Timing for main: time 2016-02-05_13:02:13 on domain   3:     .52427 elapsed seconds
Timing for main: time 2016-02-05_13:02:26 on domain   3:     .51057 elapsed seconds
Timing for main: time 2016-02-05_13:02:40 on domain   3:     .51321 elapsed seconds
Timing for main: time 2016-02-05_13:02:20 on domain   4:     .62573 elapsed seconds
Timing for main: time 2016-02-05_13:02:40 on domain   4:     .62145 elapsed seconds
Timing for main: time 2016-02-05_13:02:40 on domain   2:    4.38302 elapsed seconds
Timing for main: time 2016-02-05_13:02:53 on domain   3:     .52342 elapsed seconds
Timing for main: time 2016-02-05_13:03:06 on domain   3:     .51110 elapsed seconds
Timing for main: time 2016-02-05_13:03:20 on domain   3:     .51152 elapsed seconds
Timing for main: time 2016-02-05_13:03:00 on domain   4:     .62625 elapsed seconds
Timing for main: time 2016-02-05_13:03:20 on domain   4:     .62103 elapsed seconds
Timing for main: time 2016-02-05_13:03:20 on domain   2:    4.35884 elapsed seconds
Timing for main: time 2016-02-05_13:03:33 on domain   3:     .52317 elapsed seconds
Timing for main: time 2016-02-05_13:03:46 on domain   3:     .51081 elapsed seconds
Timing for main: time 2016-02-05_13:04:00 on domain   3:     .51085 elapsed seconds
Timing for main: time 2016-02-05_13:03:40 on domain   4:     .62758 elapsed seconds
Timing for main: time 2016-02-05_13:04:00 on domain   4:     .62178 elapsed seconds
Timing for main: time 2016-02-05_13:04:00 on domain   2:    4.38694 elapsed seconds
Timing for main: time 2016-02-05_13:04:00 on domain   1:   13.93727 elapsed seconds
Timing for main: time 2016-02-05_13:04:13 on domain   3:     .52072 elapsed seconds
Timing for main: time 2016-02-05_13:04:26 on domain   3:     .51131 elapsed seconds
Timing for main: time 2016-02-05_13:04:40 on domain   3:     .51115 elapsed seconds
Timing for main: time 2016-02-05_13:04:20 on domain   4:     .63025 elapsed seconds
Timing for main: time 2016-02-05_13:04:40 on domain   4:     .62177 elapsed seconds
Timing for main: time 2016-02-05_13:04:40 on domain   2:    4.38692 elapsed seconds
Timing for main: time 2016-02-05_13:04:53 on domain   3:     .52325 elapsed seconds
Timing for main: time 2016-02-05_13:05:06 on domain   3:     .51071 elapsed seconds
Timing for main: time 2016-02-05_13:05:20 on domain   3:     .51044 elapsed seconds
Timing for main: time 2016-02-05_13:05:00 on domain   4:     .65274 elapsed seconds
Timing for main: time 2016-02-05_13:05:20 on domain   4:     .62179 elapsed seconds
Timing for main: time 2016-02-05_13:05:20 on domain   2:    4.49486 elapsed seconds
Timing for main: time 2016-02-05_13:05:33 on domain   3:     .52234 elapsed seconds
Timing for main: time 2016-02-05_13:05:46 on domain   3:     .54749 elapsed seconds
Timing for main: time 2016-02-05_13:06:00 on domain   3:     .50527 elapsed seconds
Timing for main: time 2016-02-05_13:05:40 on domain   4:     .62813 elapsed seconds
Timing for main: time 2016-02-05_13:06:00 on domain   4:     .62195 elapsed seconds
Timing for main: time 2016-02-05_13:06:00 on domain   2:    4.38760 elapsed seconds
Timing for main: time 2016-02-05_13:06:00 on domain   1:   14.09761 elapsed seconds
Timing for main: time 2016-02-05_13:06:13 on domain   3:     .52397 elapsed seconds
Timing for main: time 2016-02-05_13:06:26 on domain   3:     .53137 elapsed seconds
Timing for main: time 2016-02-05_13:06:40 on domain   3:     .51054 elapsed seconds
Timing for main: time 2016-02-05_13:06:20 on domain   4:     .62842 elapsed seconds
Timing for main: time 2016-02-05_13:06:40 on domain   4:     .62033 elapsed seconds
Timing for main: time 2016-02-05_13:06:40 on domain   2:    4.40419 elapsed seconds
Timing for main: time 2016-02-05_13:06:53 on domain   3:     .52569 elapsed seconds
Timing for main: time 2016-02-05_13:07:06 on domain   3:     .50882 elapsed seconds
Timing for main: time 2016-02-05_13:07:20 on domain   3:     .51397 elapsed seconds
Timing for main: time 2016-02-05_13:07:00 on domain   4:     .62680 elapsed seconds
Timing for main: time 2016-02-05_13:07:20 on domain   4:     .62230 elapsed seconds
Timing for main: time 2016-02-05_13:07:20 on domain   2:    4.36157 elapsed seconds
Timing for main: time 2016-02-05_13:07:33 on domain   3:     .52382 elapsed seconds
Timing for main: time 2016-02-05_13:07:46 on domain   3:     .50996 elapsed seconds
Timing for main: time 2016-02-05_13:08:00 on domain   3:     .51187 elapsed seconds
Timing for main: time 2016-02-05_13:07:40 on domain   4:     .62675 elapsed seconds
Timing for main: time 2016-02-05_13:08:00 on domain   4:     .62122 elapsed seconds
Timing for main: time 2016-02-05_13:08:00 on domain   2:    4.36004 elapsed seconds
Timing for main: time 2016-02-05_13:08:00 on domain   1:   13.93543 elapsed seconds
Timing for main: time 2016-02-05_13:08:13 on domain   3:     .52294 elapsed seconds
Timing for main: time 2016-02-05_13:08:26 on domain   3:     .51046 elapsed seconds
Timing for main: time 2016-02-05_13:08:40 on domain   3:     .51034 elapsed seconds
Timing for main: time 2016-02-05_13:08:20 on domain   4:     .62514 elapsed seconds
Timing for main: time 2016-02-05_13:08:40 on domain   4:     .62115 elapsed seconds
Timing for main: time 2016-02-05_13:08:40 on domain   2:    4.38061 elapsed seconds
Timing for main: time 2016-02-05_13:08:53 on domain   3:     .52294 elapsed seconds
Timing for main: time 2016-02-05_13:09:06 on domain   3:     .51083 elapsed seconds
Timing for main: time 2016-02-05_13:09:20 on domain   3:     .51181 elapsed seconds
Timing for main: time 2016-02-05_13:09:00 on domain   4:     .62657 elapsed seconds
Timing for main: time 2016-02-05_13:09:20 on domain   4:     .62131 elapsed seconds
Timing for main: time 2016-02-05_13:09:20 on domain   2:    4.38537 elapsed seconds
Timing for main: time 2016-02-05_13:09:33 on domain   3:     .52259 elapsed seconds
Timing for main: time 2016-02-05_13:09:46 on domain   3:     .51129 elapsed seconds
Timing for main: time 2016-02-05_13:10:00 on domain   3:     .51157 elapsed seconds
Timing for main: time 2016-02-05_13:09:40 on domain   4:     .62665 elapsed seconds
Timing for main: time 2016-02-05_13:10:00 on domain   4:     .65145 elapsed seconds
Timing for main: time 2016-02-05_13:10:00 on domain   2:    4.38665 elapsed seconds
Timing for main: time 2016-02-05_13:10:00 on domain   1:   13.96057 elapsed seconds
Timing for main: time 2016-02-05_13:10:13 on domain   3:     .52509 elapsed seconds
Timing for main: time 2016-02-05_13:10:26 on domain   3:     .51055 elapsed seconds
Timing for main: time 2016-02-05_13:10:40 on domain   3:     .51163 elapsed seconds
Timing for main: time 2016-02-05_13:10:20 on domain   4:     .62690 elapsed seconds
Timing for main: time 2016-02-05_13:10:40 on domain   4:     .62143 elapsed seconds
Timing for main: time 2016-02-05_13:10:40 on domain   2:    4.38911 elapsed seconds
Timing for main: time 2016-02-05_13:10:53 on domain   3:     .52335 elapsed seconds
Timing for main: time 2016-02-05_13:11:06 on domain   3:     .51169 elapsed seconds
Timing for main: time 2016-02-05_13:11:20 on domain   3:     .51021 elapsed seconds
Timing for main: time 2016-02-05_13:11:00 on domain   4:     .62646 elapsed seconds
Timing for main: time 2016-02-05_13:11:20 on domain   4:     .62111 elapsed seconds
Timing for main: time 2016-02-05_13:11:20 on domain   2:    4.35735 elapsed seconds
Timing for main: time 2016-02-05_13:11:33 on domain   3:     .54685 elapsed seconds
Timing for main: time 2016-02-05_13:11:46 on domain   3:     .51155 elapsed seconds
Timing for main: time 2016-02-05_13:12:00 on domain   3:     .51574 elapsed seconds
Timing for main: time 2016-02-05_13:11:40 on domain   4:     .62728 elapsed seconds
Timing for main: time 2016-02-05_13:12:00 on domain   4:     .62236 elapsed seconds
Timing for main: time 2016-02-05_13:12:00 on domain   2:    4.38876 elapsed seconds
Timing for main: time 2016-02-05_13:12:00 on domain   1:   13.96429 elapsed seconds
Timing for main: time 2016-02-05_13:12:13 on domain   3:     .52408 elapsed seconds
Timing for main: time 2016-02-05_13:12:26 on domain   3:     .57928 elapsed seconds
Timing for main: time 2016-02-05_13:12:40 on domain   3:     .51199 elapsed seconds
Timing for main: time 2016-02-05_13:12:20 on domain   4:     .63192 elapsed seconds
Timing for main: time 2016-02-05_13:12:40 on domain   4:     .62246 elapsed seconds
Timing for main: time 2016-02-05_13:12:40 on domain   2:    4.45787 elapsed seconds
Timing for main: time 2016-02-05_13:12:53 on domain   3:     .52416 elapsed seconds
Timing for main: time 2016-02-05_13:13:06 on domain   3:     .51228 elapsed seconds
Timing for main: time 2016-02-05_13:13:20 on domain   3:     .51241 elapsed seconds
Timing for main: time 2016-02-05_13:13:00 on domain   4:     .62746 elapsed seconds
Timing for main: time 2016-02-05_13:13:20 on domain   4:     .62174 elapsed seconds
Timing for main: time 2016-02-05_13:13:20 on domain   2:    4.36181 elapsed seconds
Timing for main: time 2016-02-05_13:13:33 on domain   3:     .52388 elapsed seconds
Timing for main: time 2016-02-05_13:13:46 on domain   3:     .51198 elapsed seconds
Timing for main: time 2016-02-05_13:14:00 on domain   3:     .51194 elapsed seconds
Timing for main: time 2016-02-05_13:13:40 on domain   4:     .62726 elapsed seconds
Timing for main: time 2016-02-05_13:14:00 on domain   4:     .62265 elapsed seconds
Timing for main: time 2016-02-05_13:14:00 on domain   2:    4.36072 elapsed seconds
Timing for main: time 2016-02-05_13:14:00 on domain   1:   13.99022 elapsed seconds
Timing for main: time 2016-02-05_13:14:13 on domain   3:     .52232 elapsed seconds
Timing for main: time 2016-02-05_13:14:26 on domain   3:     .51191 elapsed seconds
Timing for main: time 2016-02-05_13:14:40 on domain   3:     .51353 elapsed seconds
Timing for main: time 2016-02-05_13:14:20 on domain   4:     .62948 elapsed seconds
Timing for main: time 2016-02-05_13:14:40 on domain   4:     .62258 elapsed seconds
Timing for main: time 2016-02-05_13:14:40 on domain   2:    4.41845 elapsed seconds
Timing for main: time 2016-02-05_13:14:53 on domain   3:     .52486 elapsed seconds
Timing for main: time 2016-02-05_13:15:06 on domain   3:     .51421 elapsed seconds
Timing for main: time 2016-02-05_13:15:20 on domain   3:     .51140 elapsed seconds
Timing for main: time 2016-02-05_13:15:00 on domain   4:     .65339 elapsed seconds
Timing for main: time 2016-02-05_13:15:20 on domain   4:     .62190 elapsed seconds
Timing for main: time 2016-02-05_13:15:20 on domain   2:    4.38810 elapsed seconds
Timing for main: time 2016-02-05_13:15:33 on domain   3:     .57266 elapsed seconds
Timing for main: time 2016-02-05_13:15:46 on domain   3:     .51216 elapsed seconds
Timing for main: time 2016-02-05_13:16:00 on domain   3:     .51223 elapsed seconds
Timing for main: time 2016-02-05_13:15:40 on domain   4:     .62695 elapsed seconds
Timing for main: time 2016-02-05_13:16:00 on domain   4:     .62169 elapsed seconds
Timing for main: time 2016-02-05_13:16:00 on domain   2:    4.40886 elapsed seconds
Timing for main: time 2016-02-05_13:16:00 on domain   1:   14.02304 elapsed seconds
Timing for main: time 2016-02-05_13:16:13 on domain   3:     .52355 elapsed seconds
Timing for main: time 2016-02-05_13:16:26 on domain   3:     .51032 elapsed seconds
Timing for main: time 2016-02-05_13:16:40 on domain   3:     .53227 elapsed seconds
Timing for main: time 2016-02-05_13:16:20 on domain   4:     .62715 elapsed seconds
Timing for main: time 2016-02-05_13:16:40 on domain   4:     .62230 elapsed seconds
Timing for main: time 2016-02-05_13:16:40 on domain   2:    4.40579 elapsed seconds
Timing for main: time 2016-02-05_13:16:53 on domain   3:     .52405 elapsed seconds
Timing for main: time 2016-02-05_13:17:06 on domain   3:     .51221 elapsed seconds
Timing for main: time 2016-02-05_13:17:20 on domain   3:     .51436 elapsed seconds
Timing for main: time 2016-02-05_13:17:00 on domain   4:     .62726 elapsed seconds
Timing for main: time 2016-02-05_13:17:20 on domain   4:     .62193 elapsed seconds
Timing for main: time 2016-02-05_13:17:20 on domain   2:    4.35895 elapsed seconds
[...]
Timing for main: time 2016-02-05_17:36:00 on domain   2:    4.39908 elapsed seconds
Timing for main: time 2016-02-05_17:36:00 on domain   1:   14.06480 elapsed seconds
Timing for main: time 2016-02-05_17:36:13 on domain   3:     .52989 elapsed seconds
Timing for main: time 2016-02-05_17:36:26 on domain   3:     .50610 elapsed seconds
Timing for main: time 2016-02-05_17:36:40 on domain   3:     .51419 elapsed seconds
Timing for main: time 2016-02-05_17:36:20 on domain   4:     .62474 elapsed seconds
Timing for main: time 2016-02-05_17:36:40 on domain   4:     .62682 elapsed seconds
Timing for main: time 2016-02-05_17:36:40 on domain   2:    4.39374 elapsed seconds
Timing for main: time 2016-02-05_17:36:53 on domain   3:     .52635 elapsed seconds
Timing for main: time 2016-02-05_17:37:06 on domain   3:     .51253 elapsed seconds
Timing for main: time 2016-02-05_17:37:20 on domain   3:     .53478 elapsed seconds
Timing for main: time 2016-02-05_17:37:00 on domain   4:     .62497 elapsed seconds
Timing for main: time 2016-02-05_17:37:20 on domain   4:     .71765 elapsed seconds
Timing for main: time 2016-02-05_17:37:20 on domain   2:    4.48893 elapsed seconds
Timing for main: time 2016-02-05_17:37:33 on domain   3:     .52629 elapsed seconds
Timing for main: time 2016-02-05_17:37:46 on domain   3:     .51595 elapsed seconds
Timing for main: time 2016-02-05_17:38:00 on domain   3:     .51234 elapsed seconds
Timing for main: time 2016-02-05_17:37:40 on domain   4:     .70073 elapsed seconds
Timing for main: time 2016-02-05_17:38:00 on domain   4:     .62601 elapsed seconds
Timing for main: time 2016-02-05_17:38:00 on domain   2:    4.45624 elapsed seconds
Timing for main: time 2016-02-05_17:38:00 on domain   1:   14.16863 elapsed seconds
Timing for main: time 2016-02-05_17:38:13 on domain   3:     .53521 elapsed seconds
Timing for main: time 2016-02-05_17:38:26 on domain   3:     .51245 elapsed seconds
Timing for main: time 2016-02-05_17:38:40 on domain   3:     .51200 elapsed seconds
Timing for main: time 2016-02-05_17:38:20 on domain   4:     .62592 elapsed seconds
Timing for main: time 2016-02-05_17:38:40 on domain   4:     .62581 elapsed seconds
Timing for main: time 2016-02-05_17:38:40 on domain   2:    4.40344 elapsed seconds
Timing for main: time 2016-02-05_17:38:53 on domain   3:     .52642 elapsed seconds
Timing for main: time 2016-02-05_17:39:06 on domain   3:     .51214 elapsed seconds
Timing for main: time 2016-02-05_17:39:20 on domain   3:     .51408 elapsed seconds
Timing for main: time 2016-02-05_17:39:00 on domain   4:     .62520 elapsed seconds
Timing for main: time 2016-02-05_17:39:20 on domain   4:     .63243 elapsed seconds
Timing for main: time 2016-02-05_17:39:20 on domain   2:    4.38392 elapsed seconds
Timing for main: time 2016-02-05_17:39:33 on domain   3:     .52576 elapsed seconds
Timing for main: time 2016-02-05_17:39:46 on domain   3:     .51255 elapsed seconds
Timing for main: time 2016-02-05_17:40:00 on domain   3:     .51234 elapsed seconds
Timing for main: time 2016-02-05_17:39:40 on domain   4:     .71043 elapsed seconds
Timing for main: time 2016-02-05_17:40:00 on domain   4:     .67218 elapsed seconds
Timing for main: time 2016-02-05_17:40:00 on domain   2:    4.50608 elapsed seconds
Timing for main: time 2016-02-05_17:40:00 on domain   1:   14.12394 elapsed seconds
Timing for main: time 2016-02-05_17:40:13 on domain   3:     .52523 elapsed seconds
Timing for main: time 2016-02-05_17:40:26 on domain   3:     .51719 elapsed seconds
Timing for main: time 2016-02-05_17:40:40 on domain   3:     .51406 elapsed seconds
Timing for main: time 2016-02-05_17:40:20 on domain   4:     .62680 elapsed seconds
Timing for main: time 2016-02-05_17:40:40 on domain   4:     .62501 elapsed seconds
Timing for main: time 2016-02-05_17:40:40 on domain   2:    4.40156 elapsed seconds
Timing for main: time 2016-02-05_17:40:53 on domain   3:     .52883 elapsed seconds
Timing for main: time 2016-02-05_17:41:06 on domain   3:     .51353 elapsed seconds
Timing for main: time 2016-02-05_17:41:20 on domain   3:     .51338 elapsed seconds
Timing for main: time 2016-02-05_17:41:00 on domain   4:     .62670 elapsed seconds
Timing for main: time 2016-02-05_17:41:20 on domain   4:     .62463 elapsed seconds
Timing for main: time 2016-02-05_17:41:20 on domain   2:    4.40754 elapsed seconds
Timing for main: time 2016-02-05_17:41:33 on domain   3:     .52529 elapsed seconds
Timing for main: time 2016-02-05_17:41:46 on domain   3:     .51331 elapsed seconds
Timing for main: time 2016-02-05_17:42:00 on domain   3:     .51372 elapsed seconds
Timing for main: time 2016-02-05_17:41:40 on domain   4:     .62375 elapsed seconds
Timing for main: time 2016-02-05_17:42:00 on domain   4:     .62322 elapsed seconds
Timing for main: time 2016-02-05_17:42:00 on domain   2:    4.37352 elapsed seconds
Timing for main: time 2016-02-05_17:42:00 on domain   1:   14.03292 elapsed seconds
Timing for main: time 2016-02-05_17:42:13 on domain   3:     .52579 elapsed seconds
Timing for main: time 2016-02-05_17:42:26 on domain   3:     .53519 elapsed seconds
Timing for main: time 2016-02-05_17:42:40 on domain   3:     .51370 elapsed seconds
Timing for main: time 2016-02-05_17:42:20 on domain   4:     .62511 elapsed seconds
Timing for main: time 2016-02-05_17:42:40 on domain   4:     .62477 elapsed seconds
Timing for main: time 2016-02-05_17:42:40 on domain   2:    4.41656 elapsed seconds
Timing for main: time 2016-02-05_17:42:53 on domain   3:     .52453 elapsed seconds
Timing for main: time 2016-02-05_17:43:06 on domain   3:     .51365 elapsed seconds
Timing for main: time 2016-02-05_17:43:20 on domain   3:     .51363 elapsed seconds
Timing for main: time 2016-02-05_17:43:00 on domain   4:     .62579 elapsed seconds
Timing for main: time 2016-02-05_17:43:20 on domain   4:     .62810 elapsed seconds
Timing for main: time 2016-02-05_17:43:20 on domain   2:    4.37897 elapsed seconds
Timing for main: time 2016-02-05_17:43:33 on domain   3:     .52797 elapsed seconds
Timing for main: time 2016-02-05_17:43:46 on domain   3:     .51442 elapsed seconds
Timing for main: time 2016-02-05_17:44:00 on domain   3:     .51284 elapsed seconds
Timing for main: time 2016-02-05_17:43:40 on domain   4:     .62542 elapsed seconds
Timing for main: time 2016-02-05_17:44:00 on domain   4:     .62481 elapsed seconds
Timing for main: time 2016-02-05_17:44:00 on domain   2:    4.37817 elapsed seconds
Timing for main: time 2016-02-05_17:44:00 on domain   1:   14.00294 elapsed seconds
Timing for main: time 2016-02-05_17:44:13 on domain   3:     .52563 elapsed seconds
Timing for main: time 2016-02-05_17:44:26 on domain   3:     .51256 elapsed seconds
Timing for main: time 2016-02-05_17:44:40 on domain   3:     .51308 elapsed seconds
Timing for main: time 2016-02-05_17:44:20 on domain   4:     .62650 elapsed seconds
Timing for main: time 2016-02-05_17:44:40 on domain   4:     .62818 elapsed seconds
Timing for main: time 2016-02-05_17:44:40 on domain   2:    4.39879 elapsed seconds
Timing for main: time 2016-02-05_17:44:53 on domain   3:     .57833 elapsed seconds
Timing for main: time 2016-02-05_17:45:06 on domain   3:     .51328 elapsed seconds
Timing for main: time 2016-02-05_17:45:20 on domain   3:     .51491 elapsed seconds
Timing for main: time 2016-02-05_17:45:00 on domain   4:     .65527 elapsed seconds
Timing for main: time 2016-02-05_17:45:20 on domain   4:     .62471 elapsed seconds
Timing for main: time 2016-02-05_17:45:20 on domain   2:    4.46100 elapsed seconds
Timing for main: time 2016-02-05_17:45:33 on domain   3:     .52606 elapsed seconds
Timing for main: time 2016-02-05_17:45:46 on domain   3:     .51314 elapsed seconds
Timing for main: time 2016-02-05_17:46:00 on domain   3:     .51355 elapsed seconds
Timing for main: time 2016-02-05_17:45:40 on domain   4:     .62609 elapsed seconds
Timing for main: time 2016-02-05_17:46:00 on domain   4:     .62394 elapsed seconds
Timing for main: time 2016-02-05_17:46:00 on domain   2:    4.37454 elapsed seconds
Timing for main: time 2016-02-05_17:46:00 on domain   1:   14.06395 elapsed seconds
Timing for main: time 2016-02-05_17:46:13 on domain   3:     .52605 elapsed seconds
Timing for main: time 2016-02-05_17:46:26 on domain   3:     .51339 elapsed seconds
Timing for main: time 2016-02-05_17:46:40 on domain   3:     .51395 elapsed seconds
Timing for main: time 2016-02-05_17:46:20 on domain   4:     .62582 elapsed seconds
Timing for main: time 2016-02-05_17:46:40 on domain   4:     .62579 elapsed seconds
Timing for main: time 2016-02-05_17:46:40 on domain   2:    4.42691 elapsed seconds
Timing for main: time 2016-02-05_17:46:53 on domain   3:     .52706 elapsed seconds
Timing for main: time 2016-02-05_17:47:06 on domain   3:     .51111 elapsed seconds
Timing for main: time 2016-02-05_17:47:20 on domain   3:     .51184 elapsed seconds
Timing for main: time 2016-02-05_17:47:00 on domain   4:     .62544 elapsed seconds
Timing for main: time 2016-02-05_17:47:20 on domain   4:     .62446 elapsed seconds
Timing for main: time 2016-02-05_17:47:20 on domain   2:    4.37226 elapsed seconds
Timing for main: time 2016-02-05_17:47:33 on domain   3:     .54758 elapsed seconds
Timing for main: time 2016-02-05_17:47:46 on domain   3:     .51260 elapsed seconds
Timing for main: time 2016-02-05_17:48:00 on domain   3:     .51346 elapsed seconds
Timing for main: time 2016-02-05_17:47:40 on domain   4:     .62887 elapsed seconds
Timing for main: time 2016-02-05_17:48:00 on domain   4:     .62593 elapsed seconds
Timing for main: time 2016-02-05_17:48:00 on domain   2:    4.40087 elapsed seconds
Timing for main: time 2016-02-05_17:48:00 on domain   1:   14.04899 elapsed seconds
Timing for main: time 2016-02-05_17:48:13 on domain   3:     .52542 elapsed seconds
Timing for main: time 2016-02-05_17:48:26 on domain   3:     .51320 elapsed seconds
Timing for main: time 2016-02-05_17:48:40 on domain   3:     .51303 elapsed seconds
Timing for main: time 2016-02-05_17:48:20 on domain   4:     .62385 elapsed seconds
Timing for main: time 2016-02-05_17:48:40 on domain   4:     .62338 elapsed seconds
Timing for main: time 2016-02-05_17:48:40 on domain   2:    4.39117 elapsed seconds
Timing for main: time 2016-02-05_17:48:53 on domain   3:     .52565 elapsed seconds
Timing for main: time 2016-02-05_17:49:06 on domain   3:     .51480 elapsed seconds
Timing for main: time 2016-02-05_17:49:20 on domain   3:     .51340 elapsed seconds
Timing for main: time 2016-02-05_17:49:00 on domain   4:     .62473 elapsed seconds
Timing for main: time 2016-02-05_17:49:20 on domain   4:     .62461 elapsed seconds
Timing for main: time 2016-02-05_17:49:20 on domain   2:    4.37228 elapsed seconds
Timing for main: time 2016-02-05_17:49:33 on domain   3:     .52689 elapsed seconds
Timing for main: time 2016-02-05_17:49:46 on domain   3:     .51075 elapsed seconds
Timing for main: time 2016-02-05_17:50:00 on domain   3:     .51403 elapsed seconds
Timing for main: time 2016-02-05_17:49:40 on domain   4:     .62569 elapsed seconds
Timing for main: time 2016-02-05_17:50:00 on domain   4:     .65046 elapsed seconds
Timing for main: time 2016-02-05_17:50:00 on domain   2:    4.40302 elapsed seconds
Timing for main: time 2016-02-05_17:50:00 on domain   1:   13.99497 elapsed seconds
Timing for main: time 2016-02-05_17:50:13 on domain   3:     .52638 elapsed seconds
Timing for main: time 2016-02-05_17:50:26 on domain   3:     .51232 elapsed seconds
Timing for main: time 2016-02-05_17:50:40 on domain   3:     .51236 elapsed seconds
Timing for main: time 2016-02-05_17:50:20 on domain   4:     .62670 elapsed seconds
Timing for main: time 2016-02-05_17:50:40 on domain   4:     .62403 elapsed seconds
Timing for main: time 2016-02-05_17:50:40 on domain   2:    4.39411 elapsed seconds
Timing for main: time 2016-02-05_17:50:53 on domain   3:     .52512 elapsed seconds
Timing for main: time 2016-02-05_17:51:06 on domain   3:     .51333 elapsed seconds
Timing for main: time 2016-02-05_17:51:20 on domain   3:     .51336 elapsed seconds
Timing for main: time 2016-02-05_17:51:00 on domain   4:     .62573 elapsed seconds
Timing for main: time 2016-02-05_17:51:20 on domain   4:     .62404 elapsed seconds
Timing for main: time 2016-02-05_17:51:20 on domain   2:    4.37626 elapsed seconds
Timing for main: time 2016-02-05_17:51:33 on domain   3:     .52561 elapsed seconds
Timing for main: time 2016-02-05_17:51:46 on domain   3:     .51291 elapsed seconds
Timing for main: time 2016-02-05_17:52:00 on domain   3:     .51313 elapsed seconds
Timing for main: time 2016-02-05_17:51:40 on domain   4:     .62442 elapsed seconds
Timing for main: time 2016-02-05_17:52:00 on domain   4:     .62532 elapsed seconds
Timing for main: time 2016-02-05_17:52:00 on domain   2:    4.40021 elapsed seconds
Timing for main: time 2016-02-05_17:52:00 on domain   1:   14.01082 elapsed seconds
Timing for main: time 2016-02-05_17:52:13 on domain   3:     .52801 elapsed seconds
Timing for main: time 2016-02-05_17:52:26 on domain   3:     .51402 elapsed seconds
Timing for main: time 2016-02-05_17:52:40 on domain   3:     .53544 elapsed seconds
Timing for main: time 2016-02-05_17:52:20 on domain   4:     .62554 elapsed seconds
Timing for main: time 2016-02-05_17:52:40 on domain   4:     .62401 elapsed seconds
Timing for main: time 2016-02-05_17:52:40 on domain   2:    4.42000 elapsed seconds
Timing for main: time 2016-02-05_17:52:53 on domain   3:     .52645 elapsed seconds
Timing for main: time 2016-02-05_17:53:06 on domain   3:     .51282 elapsed seconds
Timing for main: time 2016-02-05_17:53:20 on domain   3:     .51234 elapsed seconds
Timing for main: time 2016-02-05_17:53:00 on domain   4:     .62486 elapsed seconds
Timing for main: time 2016-02-05_17:53:20 on domain   4:     .62733 elapsed seconds
Timing for main: time 2016-02-05_17:53:20 on domain   2:    4.37642 elapsed seconds
Timing for main: time 2016-02-05_17:53:33 on domain   3:     .52519 elapsed seconds
Timing for main: time 2016-02-05_17:53:46 on domain   3:     .51447 elapsed seconds
Timing for main: time 2016-02-05_17:54:00 on domain   3:     .51324 elapsed seconds
Timing for main: time 2016-02-05_17:53:40 on domain   4:     .62593 elapsed seconds
Timing for main: time 2016-02-05_17:54:00 on domain   4:     .62419 elapsed seconds
Timing for main: time 2016-02-05_17:54:00 on domain   2:    4.37917 elapsed seconds
Timing for main: time 2016-02-05_17:54:00 on domain   1:   14.02469 elapsed seconds
Timing for main: time 2016-02-05_17:54:13 on domain   3:     .52589 elapsed seconds
Timing for main: time 2016-02-05_17:54:26 on domain   3:     .51325 elapsed seconds
Timing for main: time 2016-02-05_17:54:40 on domain   3:     .51461 elapsed seconds
Timing for main: time 2016-02-05_17:54:20 on domain   4:     .62626 elapsed seconds
Timing for main: time 2016-02-05_17:54:40 on domain   4:     .62452 elapsed seconds
Timing for main: time 2016-02-05_17:54:40 on domain   2:    4.39640 elapsed seconds
Timing for main: time 2016-02-05_17:54:53 on domain   3:     .52610 elapsed seconds
Timing for main: time 2016-02-05_17:55:06 on domain   3:     .51251 elapsed seconds
Timing for main: time 2016-02-05_17:55:20 on domain   3:     .51265 elapsed seconds
Timing for main: time 2016-02-05_17:55:00 on domain   4:     .65126 elapsed seconds
Timing for main: time 2016-02-05_17:55:20 on domain   4:     .62303 elapsed seconds
Timing for main: time 2016-02-05_17:55:20 on domain   2:    4.39855 elapsed seconds
Timing for main: time 2016-02-05_17:55:33 on domain   3:     .52626 elapsed seconds
Timing for main: time 2016-02-05_17:55:46 on domain   3:     .65232 elapsed seconds
Timing for main: time 2016-02-05_17:56:00 on domain   3:     .51793 elapsed seconds
Timing for main: time 2016-02-05_17:55:40 on domain   4:     .62517 elapsed seconds
Timing for main: time 2016-02-05_17:56:00 on domain   4:     .62365 elapsed seconds
Timing for main: time 2016-02-05_17:56:00 on domain   2:    4.51685 elapsed seconds
Timing for main: time 2016-02-05_17:56:00 on domain   1:   14.14196 elapsed seconds
Timing for main: time 2016-02-05_17:56:13 on domain   3:     .52403 elapsed seconds
Timing for main: time 2016-02-05_17:56:26 on domain   3:     .51783 elapsed seconds
Timing for main: time 2016-02-05_17:56:40 on domain   3:     .51542 elapsed seconds
Timing for main: time 2016-02-05_17:56:20 on domain   4:     .62761 elapsed seconds
Timing for main: time 2016-02-05_17:56:40 on domain   4:     .62480 elapsed seconds
Timing for main: time 2016-02-05_17:56:40 on domain   2:    4.40326 elapsed seconds
Timing for main: time 2016-02-05_17:56:53 on domain   3:     .52593 elapsed seconds
Timing for main: time 2016-02-05_17:57:06 on domain   3:     .51313 elapsed seconds
Timing for main: time 2016-02-05_17:57:20 on domain   3:     .51407 elapsed seconds
Timing for main: time 2016-02-05_17:57:00 on domain   4:     .62623 elapsed seconds
Timing for main: time 2016-02-05_17:57:20 on domain   4:     .62442 elapsed seconds
Timing for main: time 2016-02-05_17:57:20 on domain   2:    4.40402 elapsed seconds
Timing for main: time 2016-02-05_17:57:33 on domain   3:     .52670 elapsed seconds
Timing for main: time 2016-02-05_17:57:46 on domain   3:     .53523 elapsed seconds
Timing for main: time 2016-02-05_17:58:00 on domain   3:     .51363 elapsed seconds
Timing for main: time 2016-02-05_17:57:40 on domain   4:     .62634 elapsed seconds
Timing for main: time 2016-02-05_17:58:00 on domain   4:     .62522 elapsed seconds
Timing for main: time 2016-02-05_17:58:00 on domain   2:    4.39783 elapsed seconds
Timing for main: time 2016-02-05_17:58:00 on domain   1:   14.03172 elapsed seconds
  photolysis_driver: called for domain  1
Timing for main: time 2016-02-05_17:58:13 on domain   3:     .52652 elapsed seconds
Timing for main: time 2016-02-05_17:58:26 on domain   3:     .51335 elapsed seconds
Timing for main: time 2016-02-05_17:58:40 on domain   3:     .51435 elapsed seconds
Timing for main: time 2016-02-05_17:58:20 on domain   4:     .62634 elapsed seconds
Timing for main: time 2016-02-05_17:58:40 on domain   4:     .62424 elapsed seconds
Timing for main: time 2016-02-05_17:58:40 on domain   2:    4.39691 elapsed seconds
Timing for main: time 2016-02-05_17:58:53 on domain   3:     .52434 elapsed seconds
Timing for main: time 2016-02-05_17:59:06 on domain   3:     .51263 elapsed seconds
Timing for main: time 2016-02-05_17:59:20 on domain   3:     .51337 elapsed seconds
Timing for main: time 2016-02-05_17:59:00 on domain   4:     .62666 elapsed seconds
Timing for main: time 2016-02-05_17:59:20 on domain   4:     .62496 elapsed seconds
Timing for main: time 2016-02-05_17:59:20 on domain   2:    4.37649 elapsed seconds
  photolysis_driver: called for domain  2
Timing for main: time 2016-02-05_17:59:33 on domain   3:     .52712 elapsed seconds
Timing for main: time 2016-02-05_17:59:46 on domain   3:     .51272 elapsed seconds
  photolysis_driver: called for domain  3
Timing for main: time 2016-02-05_18:00:00 on domain   3:    2.96853 elapsed seconds
Timing for Writing wrfout_d03_2016-02-05_18:00:00 for domain        3:    2.08878 elapsed seconds
Timing for main: time 2016-02-05_17:59:40 on domain   4:     .71179 elapsed seconds
  photolysis_driver: called for domain  4
Timing for main: time 2016-02-05_18:00:00 on domain   4:    3.49761 elapsed seconds
Timing for Writing wrfout_d04_2016-02-05_18:00:00 for domain        4:    2.45107 elapsed seconds
Timing for main: time 2016-02-05_18:00:00 on domain   2:   18.92877 elapsed seconds
Timing for Writing wrfout_d02_2016-02-05_18:00:00 for domain        2:    2.49118 elapsed seconds
Timing for main: time 2016-02-05_18:00:00 on domain   1:   32.62539 elapsed seconds
Timing for Writing wrfout_d01_2016-02-05_18:00:00 for domain        1:    3.11610 elapsed seconds
 d01 2016-02-05_18:00:00 wrf: SUCCESS COMPLETE WRF
