taskid: 0 hostname: p10a51.pbm.ihost.com
  Ntasks in X  5 , ntasks in Y  8
 Setting blank km_opt entries to domain #1 values.
  --> The km_opt entry in the namelist.input is now max_domains.
 Setting blank diff_opt entries to domain #1 values.
  --> The diff_opt entry in the namelist.input is now max_domains.
 --- WARNING: traj_opt is zero, but num_traj is not zero; setting num_traj to zero.
 --- NOTE: hypsometric_opt is 2, setting adjust_heights = F
 --- NOTE: sst_update is 0, setting io_form_auxinput4 = 0 and auxinput4_interval = 0 for all domains
 --- NOTE: sst_update is 0, setting io_form_auxinput4 = 0 and auxinput4_interval = 0 for all domains
 --- NOTE: sst_update is 0, setting io_form_auxinput4 = 0 and auxinput4_interval = 0 for all domains
 --- NOTE: sst_update is 0, setting io_form_auxinput4 = 0 and auxinput4_interval = 0 for all domains
 --- NOTE: grid_fdda is 0 for domain      1, setting gfdda interval and ending time to 0 for that domain.
 --- NOTE: both grid_sfdda and pxlsm_soil_nudge are 0 for domain      1, setting sgfdda interval and ending time to 0 for that domain.
 --- NOTE: obs_nudge_opt is 0 for domain      1, setting obs nudging interval and ending time to 0 for that domain.
 --- NOTE: grid_fdda is 0 for domain      2, setting gfdda interval and ending time to 0 for that domain.
 --- NOTE: both grid_sfdda and pxlsm_soil_nudge are 0 for domain      2, setting sgfdda interval and ending time to 0 for that domain.
 --- NOTE: obs_nudge_opt is 0 for domain      2, setting obs nudging interval and ending time to 0 for that domain.
 --- NOTE: grid_fdda is 0 for domain      3, setting gfdda interval and ending time to 0 for that domain.
 --- NOTE: both grid_sfdda and pxlsm_soil_nudge are 0 for domain      3, setting sgfdda interval and ending time to 0 for that domain.
 --- NOTE: obs_nudge_opt is 0 for domain      3, setting obs nudging interval and ending time to 0 for that domain.
 --- NOTE: grid_fdda is 0 for domain      4, setting gfdda interval and ending time to 0 for that domain.
 --- NOTE: both grid_sfdda and pxlsm_soil_nudge are 0 for domain      4, setting sgfdda interval and ending time to 0 for that domain.
 --- NOTE: obs_nudge_opt is 0 for domain      4, setting obs nudging interval and ending time to 0 for that domain.
 bl_pbl_physics /= 4, implies mfshconv must be 0, resetting
 --- NOTE: num_soil_layers has been set to      4
 WRF V3.6 MODEL
  *************************************
  Parent domain
  ids,ide,jds,jde  1 271 1 181
  ims,ime,jms,jme  -4 61 -4 30
  ips,ipe,jps,jpe  1 54 1 23
  *************************************
 DYNAMICS OPTION: Eulerian Mass Coordinate
    alloc_space_field: domain  1 ,  226790908  bytes allocated
   med_initialdata_input: calling input_input
Timing for processing wrfinput file (stream 0) for domain        1:    3.71118 elapsed seconds
 INPUT LandUse = "USGS"
  LANDUSE TYPE = "USGS" FOUND 33  CATEGORIES 2  SEASONS WATER CATEGORY =  16  SNOW CATEGORY =  24
 INITIALIZE THREE Noah LSM RELATED TABLES
  LANDUSE TYPE = USGS FOUND 27  CATEGORIES
  INPUT SOIL TEXTURE CLASSIFICATION = STAS
  SOIL TEXTURE CLASSIFICATION = STAS FOUND 19  CATEGORIES
 *********************************************************************
 *             PROGRAM:WRF/CHEM V3.6 MODEL
 *                                                                   *
 *    PLEASE REPORT ANY BUGS TO WRF/CHEM HELP at                     *
 *                                                                   *
 *              wrfchemhelp.gsd@noaa.gov                             *
 *                                                                   *
 *********************************************************************
 WARNING: dust option 1 currently works only with the GOCART aerosol option.
 WARNING: sea salt option 1 currently works only with the GOCART aerosol option.
  *************************************
  Nesting domain
  ids,ide,jds,jde  1 361 1 253
  ims,ime,jms,jme  -4 84 -4 42
  ips,ipe,jps,jpe  1 72 1 32
  INTERMEDIATE domain
  ids,ide,jds,jde  74 199 47 136
  ims,ime,jms,jme  69 109 42 69
  ips,ipe,jps,jpe  72 99 45 59
  *************************************
 d01 2016-02-05_12:00:00  alloc_space_field: domain  2 ,  404180388  bytes allocated
 d01 2016-02-05_12:00:00  alloc_space_field: domain  2 ,  14460208  bytes allocated
 d01 2016-02-05_12:00:00 *** Initializing nest domain # 2 from an input file. ***
 d01 2016-02-05_12:00:00 med_initialdata_input: calling input_input
Timing for processing wrfinput file (stream 0) for domain        2:    6.20348 elapsed seconds
 INPUT LandUse = "USGS"
  LANDUSE TYPE = "USGS" FOUND 33  CATEGORIES 2  SEASONS WATER CATEGORY =  16  SNOW CATEGORY =  24
 INITIALIZE THREE Noah LSM RELATED TABLES
  LANDUSE TYPE = USGS FOUND 27  CATEGORIES
  INPUT SOIL TEXTURE CLASSIFICATION = STAS
  SOIL TEXTURE CLASSIFICATION = STAS FOUND 19  CATEGORIES
 *********************************************************************
 *             PROGRAM:WRF/CHEM V3.6 MODEL
 *                                                                   *
 *    PLEASE REPORT ANY BUGS TO WRF/CHEM HELP at                     *
 *                                                                   *
 *              wrfchemhelp.gsd@noaa.gov                             *
 *                                                                   *
 *********************************************************************
 WARNING: dust option 1 currently works only with the GOCART aerosol option.
 WARNING: sea salt option 1 currently works only with the GOCART aerosol option.
 INPUT LandUse = "USGS"
  LANDUSE TYPE = "USGS" FOUND 33  CATEGORIES 2  SEASONS WATER CATEGORY =  16  SNOW CATEGORY =  24
 INITIALIZE THREE Noah LSM RELATED TABLES
  LANDUSE TYPE = USGS FOUND 27  CATEGORIES
  INPUT SOIL TEXTURE CLASSIFICATION = STAS
  SOIL TEXTURE CLASSIFICATION = STAS FOUND 19  CATEGORIES
 *********************************************************************
 *             PROGRAM:WRF/CHEM V3.6 MODEL
 *                                                                   *
 *    PLEASE REPORT ANY BUGS TO WRF/CHEM HELP at                     *
 *                                                                   *
 *              wrfchemhelp.gsd@noaa.gov                             *
 *                                                                   *
 *********************************************************************
 WARNING: dust option 1 currently works only with the GOCART aerosol option.
 WARNING: sea salt option 1 currently works only with the GOCART aerosol option.
 INPUT LandUse = "USGS"
  LANDUSE TYPE = "USGS" FOUND 33  CATEGORIES 2  SEASONS WATER CATEGORY =  16  SNOW CATEGORY =  24
 INITIALIZE THREE Noah LSM RELATED TABLES
  LANDUSE TYPE = USGS FOUND 27  CATEGORIES
  INPUT SOIL TEXTURE CLASSIFICATION = STAS
  SOIL TEXTURE CLASSIFICATION = STAS FOUND 19  CATEGORIES
 *********************************************************************
 *             PROGRAM:WRF/CHEM V3.6 MODEL
 *                                                                   *
 *    PLEASE REPORT ANY BUGS TO WRF/CHEM HELP at                     *
 *                                                                   *
 *              wrfchemhelp.gsd@noaa.gov                             *
 *                                                                   *
 *********************************************************************
 WARNING: dust option 1 currently works only with the GOCART aerosol option.
 WARNING: sea salt option 1 currently works only with the GOCART aerosol option.
Timing for Writing wrfout_d01_2016-02-05_12:00:00 for domain        1:    1.22128 elapsed seconds
  mediation_integrate: med_read_wrf_chem_emissions: Open file wrfchemi_12z_d01
  HOURLY EMISSIONS UPDATE TIME         .0        .0
 mediation_integrate: med_read_wrf_chem_emissions: Read emissions for time 2016-02-05_12:00:00
 **WARNING** Time in input file not being checked **WARNING**
Timing for processing lateral boundary for domain        1:    2.91116 elapsed seconds
  Tile Strategy is not specified. Assuming 1D-Y
 WRF TILE   1 IS      1 IE     54 JS      1 JE     23
 WRF NUMBER OF TILES =   1
  photolysis_driver: called for domain  1
  *************************************
  Nesting domain
  ids,ide,jds,jde  1 307 1 241
  ims,ime,jms,jme  -4 72 -4 42
  ips,ipe,jps,jpe  1 62 1 30
  INTERMEDIATE domain
  ids,ide,jds,jde  124 231 35 120
  ims,ime,jms,jme  119 156 30 56
  ips,ipe,jps,jpe  122 146 33 46
  *************************************
 d02 2016-02-05_12:00:00  alloc_space_field: domain  3 ,  350487308  bytes allocated
 d02 2016-02-05_12:00:00  alloc_space_field: domain  3 ,  12923496  bytes allocated
 d02 2016-02-05_12:00:00 *** Initializing nest domain # 3 from an input file. ***
 d02 2016-02-05_12:00:00 med_initialdata_input: calling input_input
Timing for processing wrfinput file (stream 0) for domain        3:    5.11208 elapsed seconds
 INPUT LandUse = "USGS"
  LANDUSE TYPE = "USGS" FOUND 33  CATEGORIES 2  SEASONS WATER CATEGORY =  16  SNOW CATEGORY =  24
 INITIALIZE THREE Noah LSM RELATED TABLES
  LANDUSE TYPE = USGS FOUND 27  CATEGORIES
  INPUT SOIL TEXTURE CLASSIFICATION = STAS
  SOIL TEXTURE CLASSIFICATION = STAS FOUND 19  CATEGORIES
 *********************************************************************
 *             PROGRAM:WRF/CHEM V3.6 MODEL
 *                                                                   *
 *    PLEASE REPORT ANY BUGS TO WRF/CHEM HELP at                     *
 *                                                                   *
 *              wrfchemhelp.gsd@noaa.gov                             *
 *                                                                   *
 *********************************************************************
 WARNING: dust option 1 currently works only with the GOCART aerosol option.
 WARNING: sea salt option 1 currently works only with the GOCART aerosol option.
 INPUT LandUse = "USGS"
  LANDUSE TYPE = "USGS" FOUND 33  CATEGORIES 2  SEASONS WATER CATEGORY =  16  SNOW CATEGORY =  24
 INITIALIZE THREE Noah LSM RELATED TABLES
  LANDUSE TYPE = USGS FOUND 27  CATEGORIES
  INPUT SOIL TEXTURE CLASSIFICATION = STAS
  SOIL TEXTURE CLASSIFICATION = STAS FOUND 19  CATEGORIES
 *********************************************************************
 *             PROGRAM:WRF/CHEM V3.6 MODEL
 *                                                                   *
 *    PLEASE REPORT ANY BUGS TO WRF/CHEM HELP at                     *
 *                                                                   *
 *              wrfchemhelp.gsd@noaa.gov                             *
 *                                                                   *
 *********************************************************************
 WARNING: dust option 1 currently works only with the GOCART aerosol option.
 WARNING: sea salt option 1 currently works only with the GOCART aerosol option.
 INPUT LandUse = "USGS"
  LANDUSE TYPE = "USGS" FOUND 33  CATEGORIES 2  SEASONS WATER CATEGORY =  16  SNOW CATEGORY =  24
 INITIALIZE THREE Noah LSM RELATED TABLES
  LANDUSE TYPE = USGS FOUND 27  CATEGORIES
  INPUT SOIL TEXTURE CLASSIFICATION = STAS
  SOIL TEXTURE CLASSIFICATION = STAS FOUND 19  CATEGORIES
 *********************************************************************
 *             PROGRAM:WRF/CHEM V3.6 MODEL
 *                                                                   *
 *    PLEASE REPORT ANY BUGS TO WRF/CHEM HELP at                     *
 *                                                                   *
 *              wrfchemhelp.gsd@noaa.gov                             *
 *                                                                   *
 *********************************************************************
 WARNING: dust option 1 currently works only with the GOCART aerosol option.
 WARNING: sea salt option 1 currently works only with the GOCART aerosol option.
  *************************************
  Nesting domain
  ids,ide,jds,jde  1 217 1 388
  ims,ime,jms,jme  -4 54 -4 60
  ips,ipe,jps,jpe  1 44 1 49
  INTERMEDIATE domain
  ids,ide,jds,jde  225 302 83 217
  ims,ime,jms,jme  220 251 78 110
  ips,ipe,jps,jpe  223 241 81 100
  *************************************
 d02 2016-02-05_12:00:00  alloc_space_field: domain  4 ,  370497568  bytes allocated
 d02 2016-02-05_12:00:00  alloc_space_field: domain  4 ,  13301376  bytes allocated
 d02 2016-02-05_12:00:00 *** Initializing nest domain # 4 from an input file. ***
 d02 2016-02-05_12:00:00 med_initialdata_input: calling input_input
Timing for processing wrfinput file (stream 0) for domain        4:    6.00189 elapsed seconds
 INPUT LandUse = "USGS"
  LANDUSE TYPE = "USGS" FOUND 33  CATEGORIES 2  SEASONS WATER CATEGORY =  16  SNOW CATEGORY =  24
 INITIALIZE THREE Noah LSM RELATED TABLES
  LANDUSE TYPE = USGS FOUND 27  CATEGORIES
  INPUT SOIL TEXTURE CLASSIFICATION = STAS
  SOIL TEXTURE CLASSIFICATION = STAS FOUND 19  CATEGORIES
 *********************************************************************
 *             PROGRAM:WRF/CHEM V3.6 MODEL
 *                                                                   *
 *    PLEASE REPORT ANY BUGS TO WRF/CHEM HELP at                     *
 *                                                                   *
 *              wrfchemhelp.gsd@noaa.gov                             *
 *                                                                   *
 *********************************************************************
 WARNING: dust option 1 currently works only with the GOCART aerosol option.
 WARNING: sea salt option 1 currently works only with the GOCART aerosol option.
 INPUT LandUse = "USGS"
  LANDUSE TYPE = "USGS" FOUND 33  CATEGORIES 2  SEASONS WATER CATEGORY =  16  SNOW CATEGORY =  24
 INITIALIZE THREE Noah LSM RELATED TABLES
  LANDUSE TYPE = USGS FOUND 27  CATEGORIES
  INPUT SOIL TEXTURE CLASSIFICATION = STAS
  SOIL TEXTURE CLASSIFICATION = STAS FOUND 19  CATEGORIES
 *********************************************************************
 *             PROGRAM:WRF/CHEM V3.6 MODEL
 *                                                                   *
 *    PLEASE REPORT ANY BUGS TO WRF/CHEM HELP at                     *
 *                                                                   *
 *              wrfchemhelp.gsd@noaa.gov                             *
 *                                                                   *
 *********************************************************************
 WARNING: dust option 1 currently works only with the GOCART aerosol option.
 WARNING: sea salt option 1 currently works only with the GOCART aerosol option.
 INPUT LandUse = "USGS"
  LANDUSE TYPE = "USGS" FOUND 33  CATEGORIES 2  SEASONS WATER CATEGORY =  16  SNOW CATEGORY =  24
 INITIALIZE THREE Noah LSM RELATED TABLES
  LANDUSE TYPE = USGS FOUND 27  CATEGORIES
  INPUT SOIL TEXTURE CLASSIFICATION = STAS
  SOIL TEXTURE CLASSIFICATION = STAS FOUND 19  CATEGORIES
 *********************************************************************
 *             PROGRAM:WRF/CHEM V3.6 MODEL
 *                                                                   *
 *    PLEASE REPORT ANY BUGS TO WRF/CHEM HELP at                     *
 *                                                                   *
 *              wrfchemhelp.gsd@noaa.gov                             *
 *                                                                   *
 *********************************************************************
 WARNING: dust option 1 currently works only with the GOCART aerosol option.
 WARNING: sea salt option 1 currently works only with the GOCART aerosol option.
Timing for Writing wrfout_d02_2016-02-05_12:00:00 for domain        2:    1.73891 elapsed seconds
  mediation_integrate: med_read_wrf_chem_emissions: Open file wrfchemi_12z_d02
  HOURLY EMISSIONS UPDATE TIME         .0        .0
 mediation_integrate: med_read_wrf_chem_emissions: Read emissions for time 2016-02-05_12:00:00
 **WARNING** Time in input file not being checked **WARNING**
  Tile Strategy is not specified. Assuming 1D-Y
 WRF TILE   1 IS      1 IE     72 JS      1 JE     32
 WRF NUMBER OF TILES =   1
  photolysis_driver: called for domain  2
Timing for Writing wrfout_d03_2016-02-05_12:00:00 for domain        3:    1.54963 elapsed seconds
  mediation_integrate: med_read_wrf_chem_emissions: Open file wrfchemi_12z_d03
  HOURLY EMISSIONS UPDATE TIME         .0        .0
 mediation_integrate: med_read_wrf_chem_emissions: Read emissions for time 2016-02-05_12:00:00
 **WARNING** Time in input file not being checked **WARNING**
  Tile Strategy is not specified. Assuming 1D-Y
 WRF TILE   1 IS      1 IE     62 JS      1 JE     30
 WRF NUMBER OF TILES =   1
  photolysis_driver: called for domain  3
Timing for main: time 2016-02-05_12:00:13 on domain   3:    9.11069 elapsed seconds
Timing for main: time 2016-02-05_12:00:26 on domain   3:     .53692 elapsed seconds
Timing for main: time 2016-02-05_12:00:40 on domain   3:     .58351 elapsed seconds
Timing for Writing wrfout_d04_2016-02-05_12:00:00 for domain        4:    1.65859 elapsed seconds
  mediation_integrate: med_read_wrf_chem_emissions: Open file wrfchemi_12z_d04
  HOURLY EMISSIONS UPDATE TIME         .0        .0
 mediation_integrate: med_read_wrf_chem_emissions: Read emissions for time 2016-02-05_12:00:00
 **WARNING** Time in input file not being checked **WARNING**
  Tile Strategy is not specified. Assuming 1D-Y
 WRF TILE   1 IS      1 IE     44 JS      1 JE     49
 WRF NUMBER OF TILES =   1
  photolysis_driver: called for domain  4
Timing for main: time 2016-02-05_12:00:20 on domain   4:   10.07492 elapsed seconds
Timing for main: time 2016-02-05_12:00:40 on domain   4:     .59275 elapsed seconds
Timing for main: time 2016-02-05_12:00:40 on domain   2:   48.93070 elapsed seconds
Timing for main: time 2016-02-05_12:00:53 on domain   3:     .59166 elapsed seconds
Timing for main: time 2016-02-05_12:01:06 on domain   3:     .58159 elapsed seconds
Timing for main: time 2016-02-05_12:01:20 on domain   3:     .58032 elapsed seconds
Timing for main: time 2016-02-05_12:01:00 on domain   4:     .77209 elapsed seconds
Timing for main: time 2016-02-05_12:01:20 on domain   4:     .72525 elapsed seconds
Timing for main: time 2016-02-05_12:01:20 on domain   2:    4.78105 elapsed seconds
Timing for main: time 2016-02-05_12:01:33 on domain   3:     .59030 elapsed seconds
Timing for main: time 2016-02-05_12:01:46 on domain   3:     .58229 elapsed seconds
Timing for main: time 2016-02-05_12:02:00 on domain   3:     .58113 elapsed seconds
Timing for main: time 2016-02-05_12:01:40 on domain   4:     .72259 elapsed seconds
Timing for main: time 2016-02-05_12:02:00 on domain   4:     .72937 elapsed seconds
Timing for main: time 2016-02-05_12:02:00 on domain   2:    4.87235 elapsed seconds
Timing for main: time 2016-02-05_12:02:00 on domain   1:   78.85007 elapsed seconds
Timing for main: time 2016-02-05_12:02:13 on domain   3:     .59300 elapsed seconds
Timing for main: time 2016-02-05_12:02:26 on domain   3:     .58161 elapsed seconds
Timing for main: time 2016-02-05_12:02:40 on domain   3:     .58496 elapsed seconds
Timing for main: time 2016-02-05_12:02:20 on domain   4:     .72277 elapsed seconds
Timing for main: time 2016-02-05_12:02:40 on domain   4:     .72350 elapsed seconds
Timing for main: time 2016-02-05_12:02:40 on domain   2:    4.88334 elapsed seconds
Timing for main: time 2016-02-05_12:02:53 on domain   3:     .59202 elapsed seconds
Timing for main: time 2016-02-05_12:03:06 on domain   3:     .58100 elapsed seconds
Timing for main: time 2016-02-05_12:03:20 on domain   3:     .58021 elapsed seconds
Timing for main: time 2016-02-05_12:03:00 on domain   4:     .72267 elapsed seconds
Timing for main: time 2016-02-05_12:03:20 on domain   4:     .72413 elapsed seconds
Timing for main: time 2016-02-05_12:03:20 on domain   2:    4.86810 elapsed seconds
Timing for main: time 2016-02-05_12:03:33 on domain   3:     .59116 elapsed seconds
Timing for main: time 2016-02-05_12:03:46 on domain   3:     .58055 elapsed seconds
Timing for main: time 2016-02-05_12:04:00 on domain   3:     .58438 elapsed seconds
Timing for main: time 2016-02-05_12:03:40 on domain   4:     .72382 elapsed seconds
Timing for main: time 2016-02-05_12:04:00 on domain   4:     .72365 elapsed seconds
Timing for main: time 2016-02-05_12:04:00 on domain   2:    4.86949 elapsed seconds
Timing for main: time 2016-02-05_12:04:00 on domain   1:   15.41973 elapsed seconds
Timing for main: time 2016-02-05_12:04:13 on domain   3:     .59202 elapsed seconds
Timing for main: time 2016-02-05_12:04:26 on domain   3:     .58043 elapsed seconds
Timing for main: time 2016-02-05_12:04:40 on domain   3:     .58067 elapsed seconds
Timing for main: time 2016-02-05_12:04:20 on domain   4:     .72441 elapsed seconds
Timing for main: time 2016-02-05_12:04:40 on domain   4:     .72255 elapsed seconds
Timing for main: time 2016-02-05_12:04:40 on domain   2:    4.87935 elapsed seconds
Timing for main: time 2016-02-05_12:04:53 on domain   3:     .59887 elapsed seconds
Timing for main: time 2016-02-05_12:05:06 on domain   3:     .61081 elapsed seconds
Timing for main: time 2016-02-05_12:05:20 on domain   3:     .58095 elapsed seconds
Timing for main: time 2016-02-05_12:05:00 on domain   4:     .76023 elapsed seconds
Timing for main: time 2016-02-05_12:05:20 on domain   4:     .72341 elapsed seconds
Timing for main: time 2016-02-05_12:05:20 on domain   2:    4.97788 elapsed seconds
Timing for main: time 2016-02-05_12:05:33 on domain   3:     .59145 elapsed seconds
Timing for main: time 2016-02-05_12:05:46 on domain   3:     .58195 elapsed seconds
Timing for main: time 2016-02-05_12:06:00 on domain   3:     .58111 elapsed seconds
Timing for main: time 2016-02-05_12:05:40 on domain   4:     .72044 elapsed seconds
Timing for main: time 2016-02-05_12:06:00 on domain   4:     .72397 elapsed seconds
Timing for main: time 2016-02-05_12:06:00 on domain   2:    4.86879 elapsed seconds
Timing for main: time 2016-02-05_12:06:00 on domain   1:   15.63435 elapsed seconds
Timing for main: time 2016-02-05_12:06:13 on domain   3:     .59562 elapsed seconds
Timing for main: time 2016-02-05_12:06:26 on domain   3:     .57715 elapsed seconds
Timing for main: time 2016-02-05_12:06:40 on domain   3:     .58058 elapsed seconds
Timing for main: time 2016-02-05_12:06:20 on domain   4:     .72488 elapsed seconds
Timing for main: time 2016-02-05_12:06:40 on domain   4:     .72436 elapsed seconds
Timing for main: time 2016-02-05_12:06:40 on domain   2:    4.88242 elapsed seconds
Timing for main: time 2016-02-05_12:06:53 on domain   3:     .59163 elapsed seconds
Timing for main: time 2016-02-05_12:07:06 on domain   3:     .58105 elapsed seconds
Timing for main: time 2016-02-05_12:07:20 on domain   3:     .58142 elapsed seconds
Timing for main: time 2016-02-05_12:07:00 on domain   4:     .72518 elapsed seconds
Timing for main: time 2016-02-05_12:07:20 on domain   4:     .72373 elapsed seconds
Timing for main: time 2016-02-05_12:07:20 on domain   2:    4.86771 elapsed seconds
Timing for main: time 2016-02-05_12:07:33 on domain   3:     .59369 elapsed seconds
Timing for main: time 2016-02-05_12:07:46 on domain   3:     .58068 elapsed seconds
Timing for main: time 2016-02-05_12:08:00 on domain   3:     .58080 elapsed seconds
Timing for main: time 2016-02-05_12:07:40 on domain   4:     .72624 elapsed seconds
Timing for main: time 2016-02-05_12:08:00 on domain   4:     .72392 elapsed seconds
Timing for main: time 2016-02-05_12:08:00 on domain   2:    4.86958 elapsed seconds
Timing for main: time 2016-02-05_12:08:00 on domain   1:   15.50641 elapsed seconds
Timing for main: time 2016-02-05_12:08:13 on domain   3:     .59184 elapsed seconds
Timing for main: time 2016-02-05_12:08:26 on domain   3:     .58069 elapsed seconds
Timing for main: time 2016-02-05_12:08:40 on domain   3:     .58091 elapsed seconds
Timing for main: time 2016-02-05_12:08:20 on domain   4:     .72624 elapsed seconds
Timing for main: time 2016-02-05_12:08:40 on domain   4:     .72414 elapsed seconds
Timing for main: time 2016-02-05_12:08:40 on domain   2:    4.88269 elapsed seconds
Timing for main: time 2016-02-05_12:08:53 on domain   3:     .59366 elapsed seconds
Timing for main: time 2016-02-05_12:09:06 on domain   3:     .58094 elapsed seconds
Timing for main: time 2016-02-05_12:09:20 on domain   3:     .58141 elapsed seconds
Timing for main: time 2016-02-05_12:09:00 on domain   4:     .72684 elapsed seconds
Timing for main: time 2016-02-05_12:09:20 on domain   4:     .72489 elapsed seconds
Timing for main: time 2016-02-05_12:09:20 on domain   2:    4.87972 elapsed seconds
Timing for main: time 2016-02-05_12:09:33 on domain   3:     .59242 elapsed seconds
Timing for main: time 2016-02-05_12:09:46 on domain   3:     .58138 elapsed seconds
Timing for main: time 2016-02-05_12:10:00 on domain   3:     .58087 elapsed seconds
Timing for main: time 2016-02-05_12:09:40 on domain   4:     .72957 elapsed seconds
Timing for main: time 2016-02-05_12:10:00 on domain   4:     .75913 elapsed seconds
Timing for main: time 2016-02-05_12:10:00 on domain   2:    4.90519 elapsed seconds
Timing for main: time 2016-02-05_12:10:00 on domain   1:   15.55168 elapsed seconds
Timing for main: time 2016-02-05_12:10:13 on domain   3:     .62089 elapsed seconds
Timing for main: time 2016-02-05_12:10:26 on domain   3:     .58150 elapsed seconds
Timing for main: time 2016-02-05_12:10:40 on domain   3:     .58216 elapsed seconds
Timing for main: time 2016-02-05_12:10:20 on domain   4:     .72946 elapsed seconds
Timing for main: time 2016-02-05_12:10:40 on domain   4:     .72405 elapsed seconds
Timing for main: time 2016-02-05_12:10:40 on domain   2:    4.95547 elapsed seconds
Timing for main: time 2016-02-05_12:10:53 on domain   3:     .59447 elapsed seconds
Timing for main: time 2016-02-05_12:11:06 on domain   3:     .58149 elapsed seconds
Timing for main: time 2016-02-05_12:11:20 on domain   3:     .58004 elapsed seconds
Timing for main: time 2016-02-05_12:11:00 on domain   4:     .72849 elapsed seconds
Timing for main: time 2016-02-05_12:11:20 on domain   4:     .72562 elapsed seconds
Timing for main: time 2016-02-05_12:11:20 on domain   2:    4.87109 elapsed seconds
Timing for main: time 2016-02-05_12:11:33 on domain   3:     .59144 elapsed seconds
Timing for main: time 2016-02-05_12:11:46 on domain   3:     .58064 elapsed seconds
Timing for main: time 2016-02-05_12:12:00 on domain   3:     .58096 elapsed seconds
Timing for main: time 2016-02-05_12:11:40 on domain   4:     .72884 elapsed seconds
Timing for main: time 2016-02-05_12:12:00 on domain   4:     .72651 elapsed seconds
Timing for main: time 2016-02-05_12:12:00 on domain   2:    4.87212 elapsed seconds
Timing for main: time 2016-02-05_12:12:00 on domain   1:   15.60216 elapsed seconds
Timing for main: time 2016-02-05_12:12:13 on domain   3:     .59148 elapsed seconds
Timing for main: time 2016-02-05_12:12:26 on domain   3:     .58050 elapsed seconds
Timing for main: time 2016-02-05_12:12:40 on domain   3:     .58044 elapsed seconds
Timing for main: time 2016-02-05_12:12:20 on domain   4:     .73014 elapsed seconds
Timing for main: time 2016-02-05_12:12:40 on domain   4:     .72571 elapsed seconds
Timing for main: time 2016-02-05_12:12:40 on domain   2:    4.88651 elapsed seconds
Timing for main: time 2016-02-05_12:12:53 on domain   3:     .59173 elapsed seconds
Timing for main: time 2016-02-05_12:13:06 on domain   3:     .58047 elapsed seconds
Timing for main: time 2016-02-05_12:13:20 on domain   3:     .58061 elapsed seconds
Timing for main: time 2016-02-05_12:13:00 on domain   4:     .73041 elapsed seconds
Timing for main: time 2016-02-05_12:13:20 on domain   4:     .72304 elapsed seconds
Timing for main: time 2016-02-05_12:13:20 on domain   2:    4.86646 elapsed seconds
Timing for main: time 2016-02-05_12:13:33 on domain   3:     .58489 elapsed seconds
Timing for main: time 2016-02-05_12:13:46 on domain   3:     .58207 elapsed seconds
Timing for main: time 2016-02-05_12:14:00 on domain   3:     .58041 elapsed seconds
Timing for main: time 2016-02-05_12:13:40 on domain   4:     .72937 elapsed seconds
Timing for main: time 2016-02-05_12:14:00 on domain   4:     .72399 elapsed seconds
Timing for main: time 2016-02-05_12:14:00 on domain   2:    4.86910 elapsed seconds
Timing for main: time 2016-02-05_12:14:00 on domain   1:   15.50389 elapsed seconds
Timing for main: time 2016-02-05_12:14:13 on domain   3:     .59187 elapsed seconds
Timing for main: time 2016-02-05_12:14:26 on domain   3:     .58300 elapsed seconds
Timing for main: time 2016-02-05_12:14:40 on domain   3:     .58055 elapsed seconds
Timing for main: time 2016-02-05_12:14:20 on domain   4:     .73074 elapsed seconds
Timing for main: time 2016-02-05_12:14:40 on domain   4:     .72379 elapsed seconds
Timing for main: time 2016-02-05_12:14:40 on domain   2:    4.88868 elapsed seconds
Timing for main: time 2016-02-05_12:14:53 on domain   3:     .59115 elapsed seconds
Timing for main: time 2016-02-05_12:15:06 on domain   3:     .58123 elapsed seconds
Timing for main: time 2016-02-05_12:15:20 on domain   3:     .60977 elapsed seconds
Timing for main: time 2016-02-05_12:15:00 on domain   4:     .76467 elapsed seconds
Timing for main: time 2016-02-05_12:15:20 on domain   4:     .72479 elapsed seconds
Timing for main: time 2016-02-05_12:15:20 on domain   2:    4.93265 elapsed seconds
Timing for main: time 2016-02-05_12:15:33 on domain   3:     .59151 elapsed seconds
Timing for main: time 2016-02-05_12:15:46 on domain   3:     .58086 elapsed seconds
Timing for main: time 2016-02-05_12:16:00 on domain   3:     .58020 elapsed seconds
Timing for main: time 2016-02-05_12:15:40 on domain   4:     .78684 elapsed seconds
Timing for main: time 2016-02-05_12:16:00 on domain   4:     .72421 elapsed seconds
Timing for main: time 2016-02-05_12:16:00 on domain   2:    4.96321 elapsed seconds
Timing for main: time 2016-02-05_12:16:00 on domain   1:   15.66574 elapsed seconds
Timing for main: time 2016-02-05_12:16:13 on domain   3:     .59162 elapsed seconds
Timing for main: time 2016-02-05_12:16:26 on domain   3:     .58084 elapsed seconds
Timing for main: time 2016-02-05_12:16:40 on domain   3:     .58384 elapsed seconds
Timing for main: time 2016-02-05_12:16:20 on domain   4:     .73236 elapsed seconds
Timing for main: time 2016-02-05_12:16:40 on domain   4:     .72340 elapsed seconds
Timing for main: time 2016-02-05_12:16:40 on domain   2:    4.89294 elapsed seconds
Timing for main: time 2016-02-05_12:16:53 on domain   3:     .59220 elapsed seconds
Timing for main: time 2016-02-05_12:17:06 on domain   3:     .58062 elapsed seconds
Timing for main: time 2016-02-05_12:17:20 on domain   3:     .58069 elapsed seconds
Timing for main: time 2016-02-05_12:17:00 on domain   4:     .72953 elapsed seconds
Timing for main: time 2016-02-05_12:17:20 on domain   4:     .72949 elapsed seconds
Timing for main: time 2016-02-05_12:17:20 on domain   2:    4.87429 elapsed seconds
Timing for main: time 2016-02-05_12:17:33 on domain   3:     .59204 elapsed seconds
Timing for main: time 2016-02-05_12:17:46 on domain   3:     .58040 elapsed seconds
Timing for main: time 2016-02-05_12:18:00 on domain   3:     .58112 elapsed seconds
Timing for main: time 2016-02-05_12:17:40 on domain   4:     .73147 elapsed seconds
Timing for main: time 2016-02-05_12:18:00 on domain   4:     .72556 elapsed seconds
Timing for main: time 2016-02-05_12:18:00 on domain   2:    4.86767 elapsed seconds
Timing for main: time 2016-02-05_12:18:00 on domain   1:   15.53652 elapsed seconds
Timing for main: time 2016-02-05_12:18:13 on domain   3:     .59138 elapsed seconds
Timing for main: time 2016-02-05_12:18:26 on domain   3:     .58101 elapsed seconds
Timing for main: time 2016-02-05_12:18:40 on domain   3:     .58063 elapsed seconds
Timing for main: time 2016-02-05_12:18:20 on domain   4:     .73244 elapsed seconds
Timing for main: time 2016-02-05_12:18:40 on domain   4:     .72338 elapsed seconds
Timing for main: time 2016-02-05_12:18:40 on domain   2:    4.88854 elapsed seconds
Timing for main: time 2016-02-05_12:18:53 on domain   3:     .59138 elapsed seconds
Timing for main: time 2016-02-05_12:19:06 on domain   3:     .58121 elapsed seconds
Timing for main: time 2016-02-05_12:19:20 on domain   3:     .58067 elapsed seconds
Timing for main: time 2016-02-05_12:19:00 on domain   4:     .73140 elapsed seconds
Timing for main: time 2016-02-05_12:19:20 on domain   4:     .72423 elapsed seconds
Timing for main: time 2016-02-05_12:19:20 on domain   2:    4.86966 elapsed seconds
Timing for main: time 2016-02-05_12:19:33 on domain   3:     .59186 elapsed seconds
Timing for main: time 2016-02-05_12:19:46 on domain   3:     .58164 elapsed seconds
Timing for main: time 2016-02-05_12:20:00 on domain   3:     .58015 elapsed seconds
Timing for main: time 2016-02-05_12:19:40 on domain   4:     .72983 elapsed seconds
Timing for main: time 2016-02-05_12:20:00 on domain   4:     .75960 elapsed seconds
Timing for main: time 2016-02-05_12:20:00 on domain   2:    4.90520 elapsed seconds
Timing for main: time 2016-02-05_12:20:00 on domain   1:   15.54466 elapsed seconds
Timing for main: time 2016-02-05_12:20:13 on domain   3:     .59179 elapsed seconds
Timing for main: time 2016-02-05_12:20:26 on domain   3:     .61044 elapsed seconds
Timing for main: time 2016-02-05_12:20:40 on domain   3:     .58164 elapsed seconds
Timing for main: time 2016-02-05_12:20:20 on domain   4:     .72927 elapsed seconds
Timing for main: time 2016-02-05_12:20:40 on domain   4:     .72487 elapsed seconds
Timing for main: time 2016-02-05_12:20:40 on domain   2:    4.91716 elapsed seconds
Timing for main: time 2016-02-05_12:20:53 on domain   3:     .59184 elapsed seconds
Timing for main: time 2016-02-05_12:21:06 on domain   3:     .58077 elapsed seconds
Timing for main: time 2016-02-05_12:21:20 on domain   3:     .58073 elapsed seconds
Timing for main: time 2016-02-05_12:21:00 on domain   4:     .72879 elapsed seconds
Timing for main: time 2016-02-05_12:21:20 on domain   4:     .72760 elapsed seconds
Timing for main: time 2016-02-05_12:21:20 on domain   2:    4.90958 elapsed seconds
Timing for main: time 2016-02-05_12:21:33 on domain   3:     .59218 elapsed seconds
Timing for main: time 2016-02-05_12:21:46 on domain   3:     .58124 elapsed seconds
Timing for main: time 2016-02-05_12:22:00 on domain   3:     .58090 elapsed seconds
Timing for main: time 2016-02-05_12:21:40 on domain   4:     .72820 elapsed seconds
Timing for main: time 2016-02-05_12:22:00 on domain   4:     .72601 elapsed seconds
Timing for main: time 2016-02-05_12:22:00 on domain   2:    4.87139 elapsed seconds
Timing for main: time 2016-02-05_12:22:00 on domain   1:   15.57989 elapsed seconds
Timing for main: time 2016-02-05_12:22:13 on domain   3:     .59325 elapsed seconds
Timing for main: time 2016-02-05_12:22:26 on domain   3:     .58006 elapsed seconds
Timing for main: time 2016-02-05_12:22:40 on domain   3:     .58023 elapsed seconds
Timing for main: time 2016-02-05_12:22:20 on domain   4:     .72991 elapsed seconds
Timing for main: time 2016-02-05_12:22:40 on domain   4:     .72400 elapsed seconds
Timing for main: time 2016-02-05_12:22:40 on domain   2:    4.88847 elapsed seconds
Timing for main: time 2016-02-05_12:22:53 on domain   3:     .59185 elapsed seconds
Timing for main: time 2016-02-05_12:23:06 on domain   3:     .58157 elapsed seconds
Timing for main: time 2016-02-05_12:23:20 on domain   3:     .58100 elapsed seconds
Timing for main: time 2016-02-05_12:23:00 on domain   4:     .72922 elapsed seconds
Timing for main: time 2016-02-05_12:23:20 on domain   4:     .72418 elapsed seconds
Timing for main: time 2016-02-05_12:23:20 on domain   2:    4.87010 elapsed seconds
Timing for main: time 2016-02-05_12:23:33 on domain   3:     .59214 elapsed seconds
Timing for main: time 2016-02-05_12:23:46 on domain   3:     .58059 elapsed seconds
Timing for main: time 2016-02-05_12:24:00 on domain   3:     .58137 elapsed seconds
Timing for main: time 2016-02-05_12:23:40 on domain   4:     .72620 elapsed seconds
Timing for main: time 2016-02-05_12:24:00 on domain   4:     .72487 elapsed seconds
Timing for main: time 2016-02-05_12:24:00 on domain   2:    4.87453 elapsed seconds
Timing for main: time 2016-02-05_12:24:00 on domain   1:   15.53618 elapsed seconds
Timing for main: time 2016-02-05_12:24:13 on domain   3:     .59321 elapsed seconds
Timing for main: time 2016-02-05_12:24:26 on domain   3:     .58082 elapsed seconds
Timing for main: time 2016-02-05_12:24:40 on domain   3:     .58074 elapsed seconds
Timing for main: time 2016-02-05_12:24:20 on domain   4:     .72733 elapsed seconds
Timing for main: time 2016-02-05_12:24:40 on domain   4:     .72527 elapsed seconds
Timing for main: time 2016-02-05_12:24:40 on domain   2:    4.88750 elapsed seconds
Timing for main: time 2016-02-05_12:24:53 on domain   3:     .59214 elapsed seconds
Timing for main: time 2016-02-05_12:25:06 on domain   3:     .58103 elapsed seconds
Timing for main: time 2016-02-05_12:25:20 on domain   3:     .58104 elapsed seconds
Timing for main: time 2016-02-05_12:25:00 on domain   4:     .76351 elapsed seconds
Timing for main: time 2016-02-05_12:25:20 on domain   4:     .72453 elapsed seconds
Timing for main: time 2016-02-05_12:25:20 on domain   2:    4.90601 elapsed seconds
Timing for main: time 2016-02-05_12:25:33 on domain   3:     .62413 elapsed seconds
Timing for main: time 2016-02-05_12:25:46 on domain   3:     .58785 elapsed seconds
Timing for main: time 2016-02-05_12:26:00 on domain   3:     .58115 elapsed seconds
Timing for main: time 2016-02-05_12:25:40 on domain   4:     .72868 elapsed seconds
Timing for main: time 2016-02-05_12:26:00 on domain   4:     .72638 elapsed seconds
Timing for main: time 2016-02-05_12:26:00 on domain   2:    4.91289 elapsed seconds
Timing for main: time 2016-02-05_12:26:00 on domain   1:   15.58964 elapsed seconds
Timing for main: time 2016-02-05_12:26:13 on domain   3:     .67205 elapsed seconds
Timing for main: time 2016-02-05_12:26:26 on domain   3:     .57946 elapsed seconds
Timing for main: time 2016-02-05_12:26:40 on domain   3:     .58019 elapsed seconds
Timing for main: time 2016-02-05_12:26:20 on domain   4:     .72762 elapsed seconds
Timing for main: time 2016-02-05_12:26:40 on domain   4:     .72444 elapsed seconds
Timing for main: time 2016-02-05_12:26:40 on domain   2:    5.00161 elapsed seconds
Timing for main: time 2016-02-05_12:26:53 on domain   3:     .59126 elapsed seconds
Timing for main: time 2016-02-05_12:27:06 on domain   3:     .58090 elapsed seconds
Timing for main: time 2016-02-05_12:27:20 on domain   3:     .58171 elapsed seconds
Timing for main: time 2016-02-05_12:27:00 on domain   4:     .73155 elapsed seconds
Timing for main: time 2016-02-05_12:27:20 on domain   4:     .72446 elapsed seconds
Timing for main: time 2016-02-05_12:27:20 on domain   2:    4.87510 elapsed seconds
Timing for main: time 2016-02-05_12:27:33 on domain   3:     .59181 elapsed seconds
Timing for main: time 2016-02-05_12:27:46 on domain   3:     .58106 elapsed seconds
Timing for main: time 2016-02-05_12:28:00 on domain   3:     .58144 elapsed seconds
Timing for main: time 2016-02-05_12:27:40 on domain   4:     .72717 elapsed seconds
Timing for main: time 2016-02-05_12:28:00 on domain   4:     .72474 elapsed seconds
Timing for main: time 2016-02-05_12:28:00 on domain   2:    4.87213 elapsed seconds
Timing for main: time 2016-02-05_12:28:00 on domain   1:   15.63220 elapsed seconds
  photolysis_driver: called for domain  1
Timing for main: time 2016-02-05_12:28:13 on domain   3:     .59238 elapsed seconds
Timing for main: time 2016-02-05_12:28:26 on domain   3:     .58089 elapsed seconds
Timing for main: time 2016-02-05_12:28:40 on domain   3:     .58083 elapsed seconds
Timing for main: time 2016-02-05_12:28:20 on domain   4:     .72972 elapsed seconds
Timing for main: time 2016-02-05_12:28:40 on domain   4:     .72607 elapsed seconds
Timing for main: time 2016-02-05_12:28:40 on domain   2:    4.89049 elapsed seconds
Timing for main: time 2016-02-05_12:28:53 on domain   3:     .59288 elapsed seconds
Timing for main: time 2016-02-05_12:29:06 on domain   3:     .58081 elapsed seconds
Timing for main: time 2016-02-05_12:29:20 on domain   3:     .58101 elapsed seconds
Timing for main: time 2016-02-05_12:29:00 on domain   4:     .72558 elapsed seconds
Timing for main: time 2016-02-05_12:29:20 on domain   4:     .72638 elapsed seconds
Timing for main: time 2016-02-05_12:29:20 on domain   2:    4.87265 elapsed seconds
  photolysis_driver: called for domain  2
Timing for main: time 2016-02-05_12:29:33 on domain   3:     .59201 elapsed seconds
Timing for main: time 2016-02-05_12:29:46 on domain   3:     .58116 elapsed seconds
  photolysis_driver: called for domain  3
Timing for main: time 2016-02-05_12:30:00 on domain   3:    4.04956 elapsed seconds
Timing for main: time 2016-02-05_12:29:40 on domain   4:     .72713 elapsed seconds
  photolysis_driver: called for domain  4
Timing for main: time 2016-02-05_12:30:00 on domain   4:    4.72446 elapsed seconds
Timing for main: time 2016-02-05_12:30:00 on domain   2:   16.71954 elapsed seconds
Timing for main: time 2016-02-05_12:30:00 on domain   1:   30.00689 elapsed seconds
Timing for main: time 2016-02-05_12:30:13 on domain   3:    1.25734 elapsed seconds
Timing for main: time 2016-02-05_12:30:26 on domain   3:     .57581 elapsed seconds
Timing for main: time 2016-02-05_12:30:40 on domain   3:     .60738 elapsed seconds
Timing for main: time 2016-02-05_12:30:20 on domain   4:    1.50275 elapsed seconds
Timing for main: time 2016-02-05_12:30:40 on domain   4:     .72085 elapsed seconds
Timing for main: time 2016-02-05_12:30:40 on domain   2:    7.18800 elapsed seconds
Timing for main: time 2016-02-05_12:30:53 on domain   3:     .59041 elapsed seconds
Timing for main: time 2016-02-05_12:31:06 on domain   3:     .58026 elapsed seconds
Timing for main: time 2016-02-05_12:31:20 on domain   3:     .57797 elapsed seconds
Timing for main: time 2016-02-05_12:31:00 on domain   4:     .72174 elapsed seconds
Timing for main: time 2016-02-05_12:31:20 on domain   4:     .72053 elapsed seconds
Timing for main: time 2016-02-05_12:31:20 on domain   2:    4.85414 elapsed seconds
Timing for main: time 2016-02-05_12:31:33 on domain   3:     .60645 elapsed seconds
Timing for main: time 2016-02-05_12:31:46 on domain   3:     .57696 elapsed seconds
Timing for main: time 2016-02-05_12:32:00 on domain   3:     .57663 elapsed seconds
Timing for main: time 2016-02-05_12:31:40 on domain   4:     .72180 elapsed seconds
Timing for main: time 2016-02-05_12:32:00 on domain   4:     .71983 elapsed seconds
Timing for main: time 2016-02-05_12:32:00 on domain   2:    4.90382 elapsed seconds
Timing for main: time 2016-02-05_12:32:00 on domain   1:   18.48272 elapsed seconds
Timing for main: time 2016-02-05_12:32:13 on domain   3:     .58971 elapsed seconds
Timing for main: time 2016-02-05_12:32:26 on domain   3:     .57733 elapsed seconds
Timing for main: time 2016-02-05_12:32:40 on domain   3:     .57687 elapsed seconds
Timing for main: time 2016-02-05_12:32:20 on domain   4:     .72230 elapsed seconds
Timing for main: time 2016-02-05_12:32:40 on domain   4:     .71964 elapsed seconds
Timing for main: time 2016-02-05_12:32:40 on domain   2:    4.86069 elapsed seconds
Timing for main: time 2016-02-05_12:32:53 on domain   3:     .58760 elapsed seconds
Timing for main: time 2016-02-05_12:33:06 on domain   3:     .57820 elapsed seconds
Timing for main: time 2016-02-05_12:33:20 on domain   3:     .57908 elapsed seconds
Timing for main: time 2016-02-05_12:33:00 on domain   4:     .72269 elapsed seconds
Timing for main: time 2016-02-05_12:33:20 on domain   4:     .71853 elapsed seconds
Timing for main: time 2016-02-05_12:33:20 on domain   2:    4.84558 elapsed seconds
Timing for main: time 2016-02-05_12:33:33 on domain   3:     .59447 elapsed seconds
Timing for main: time 2016-02-05_12:33:46 on domain   3:     .57828 elapsed seconds
Timing for main: time 2016-02-05_12:34:00 on domain   3:     .57696 elapsed seconds
Timing for main: time 2016-02-05_12:33:40 on domain   4:     .72224 elapsed seconds
Timing for main: time 2016-02-05_12:34:00 on domain   4:     .72276 elapsed seconds
Timing for main: time 2016-02-05_12:34:00 on domain   2:    4.85671 elapsed seconds
Timing for main: time 2016-02-05_12:34:00 on domain   1:   15.44697 elapsed seconds
Timing for main: time 2016-02-05_12:34:13 on domain   3:     .58814 elapsed seconds
Timing for main: time 2016-02-05_12:34:26 on domain   3:     .57972 elapsed seconds
Timing for main: time 2016-02-05_12:34:40 on domain   3:     .58197 elapsed seconds
Timing for main: time 2016-02-05_12:34:20 on domain   4:     .72195 elapsed seconds
Timing for main: time 2016-02-05_12:34:40 on domain   4:     .71940 elapsed seconds
Timing for main: time 2016-02-05_12:34:40 on domain   2:    4.86604 elapsed seconds
Timing for main: time 2016-02-05_12:34:53 on domain   3:     .58708 elapsed seconds
Timing for main: time 2016-02-05_12:35:06 on domain   3:     .58403 elapsed seconds
Timing for main: time 2016-02-05_12:35:20 on domain   3:     .57761 elapsed seconds
Timing for main: time 2016-02-05_12:35:00 on domain   4:     .75634 elapsed seconds
Timing for main: time 2016-02-05_12:35:20 on domain   4:     .72110 elapsed seconds
Timing for main: time 2016-02-05_12:35:20 on domain   2:    4.88878 elapsed seconds
Timing for main: time 2016-02-05_12:35:33 on domain   3:     .58776 elapsed seconds
Timing for main: time 2016-02-05_12:35:46 on domain   3:     .60684 elapsed seconds
Timing for main: time 2016-02-05_12:36:00 on domain   3:     .57725 elapsed seconds
Timing for main: time 2016-02-05_12:35:40 on domain   4:     .72094 elapsed seconds
Timing for main: time 2016-02-05_12:36:00 on domain   4:     .71970 elapsed seconds
Timing for main: time 2016-02-05_12:36:00 on domain   2:    4.87467 elapsed seconds
Timing for main: time 2016-02-05_12:36:00 on domain   1:   15.53374 elapsed seconds
Timing for main: time 2016-02-05_12:36:13 on domain   3:     .58762 elapsed seconds
Timing for main: time 2016-02-05_12:36:26 on domain   3:     .57775 elapsed seconds
Timing for main: time 2016-02-05_12:36:40 on domain   3:     .57742 elapsed seconds
Timing for main: time 2016-02-05_12:36:20 on domain   4:     .72087 elapsed seconds
Timing for main: time 2016-02-05_12:36:40 on domain   4:     .72033 elapsed seconds
Timing for main: time 2016-02-05_12:36:40 on domain   2:    4.85801 elapsed seconds
Timing for main: time 2016-02-05_12:36:53 on domain   3:     .58835 elapsed seconds
Timing for main: time 2016-02-05_12:37:06 on domain   3:     .57691 elapsed seconds
Timing for main: time 2016-02-05_12:37:20 on domain   3:     .57752 elapsed seconds
Timing for main: time 2016-02-05_12:37:00 on domain   4:     .72134 elapsed seconds
Timing for main: time 2016-02-05_12:37:20 on domain   4:     .71993 elapsed seconds
Timing for main: time 2016-02-05_12:37:20 on domain   2:    4.88366 elapsed seconds
Timing for main: time 2016-02-05_12:37:33 on domain   3:     .58999 elapsed seconds
Timing for main: time 2016-02-05_12:37:46 on domain   3:     .57713 elapsed seconds
Timing for main: time 2016-02-05_12:38:00 on domain   3:     .57822 elapsed seconds
Timing for main: time 2016-02-05_12:37:40 on domain   4:     .72072 elapsed seconds
Timing for main: time 2016-02-05_12:38:00 on domain   4:     .71998 elapsed seconds
Timing for main: time 2016-02-05_12:38:00 on domain   2:    4.85200 elapsed seconds
Timing for main: time 2016-02-05_12:38:00 on domain   1:   15.47872 elapsed seconds
Timing for main: time 2016-02-05_12:38:13 on domain   3:     .59057 elapsed seconds
Timing for main: time 2016-02-05_12:38:26 on domain   3:     .57454 elapsed seconds
Timing for main: time 2016-02-05_12:38:40 on domain   3:     .57729 elapsed seconds
Timing for main: time 2016-02-05_12:38:20 on domain   4:     .72181 elapsed seconds
Timing for main: time 2016-02-05_12:38:40 on domain   4:     .72003 elapsed seconds
Timing for main: time 2016-02-05_12:38:40 on domain   2:    4.85908 elapsed seconds
Timing for main: time 2016-02-05_12:38:53 on domain   3:     .58762 elapsed seconds
Timing for main: time 2016-02-05_12:39:06 on domain   3:     .57715 elapsed seconds
Timing for main: time 2016-02-05_12:39:20 on domain   3:     .58148 elapsed seconds
Timing for main: time 2016-02-05_12:39:00 on domain   4:     .72034 elapsed seconds
Timing for main: time 2016-02-05_12:39:20 on domain   4:     .72296 elapsed seconds
Timing for main: time 2016-02-05_12:39:20 on domain   2:    4.85412 elapsed seconds
Timing for main: time 2016-02-05_12:39:33 on domain   3:     .58892 elapsed seconds
Timing for main: time 2016-02-05_12:39:46 on domain   3:     .57846 elapsed seconds
Timing for main: time 2016-02-05_12:40:00 on domain   3:     .57743 elapsed seconds
Timing for main: time 2016-02-05_12:39:40 on domain   4:     .72082 elapsed seconds
Timing for main: time 2016-02-05_12:40:00 on domain   4:     .75495 elapsed seconds
Timing for main: time 2016-02-05_12:40:00 on domain   2:    4.88194 elapsed seconds
Timing for main: time 2016-02-05_12:40:00 on domain   1:   15.48048 elapsed seconds
Timing for main: time 2016-02-05_12:40:13 on domain   3:     .58803 elapsed seconds
Timing for main: time 2016-02-05_12:40:26 on domain   3:     .57746 elapsed seconds
Timing for main: time 2016-02-05_12:40:40 on domain   3:     .57708 elapsed seconds
Timing for main: time 2016-02-05_12:40:20 on domain   4:     .72148 elapsed seconds
Timing for main: time 2016-02-05_12:40:40 on domain   4:     .72017 elapsed seconds
Timing for main: time 2016-02-05_12:40:40 on domain   2:    4.91256 elapsed seconds
Timing for main: time 2016-02-05_12:40:53 on domain   3:     .61707 elapsed seconds
Timing for main: time 2016-02-05_12:41:06 on domain   3:     .57774 elapsed seconds
Timing for main: time 2016-02-05_12:41:20 on domain   3:     .57591 elapsed seconds
Timing for main: time 2016-02-05_12:41:00 on domain   4:     .72048 elapsed seconds
Timing for main: time 2016-02-05_12:41:20 on domain   4:     .72106 elapsed seconds
Timing for main: time 2016-02-05_12:41:20 on domain   2:    4.87666 elapsed seconds
Timing for main: time 2016-02-05_12:41:33 on domain   3:     .58846 elapsed seconds
Timing for main: time 2016-02-05_12:41:46 on domain   3:     .57847 elapsed seconds
Timing for main: time 2016-02-05_12:42:00 on domain   3:     .57818 elapsed seconds
Timing for main: time 2016-02-05_12:41:40 on domain   4:     .71990 elapsed seconds
Timing for main: time 2016-02-05_12:42:00 on domain   4:     .72013 elapsed seconds
Timing for main: time 2016-02-05_12:42:00 on domain   2:    4.84832 elapsed seconds
Timing for main: time 2016-02-05_12:42:00 on domain   1:   15.54467 elapsed seconds
Timing for main: time 2016-02-05_12:42:13 on domain   3:     .58882 elapsed seconds
Timing for main: time 2016-02-05_12:42:26 on domain   3:     .57753 elapsed seconds
Timing for main: time 2016-02-05_12:42:40 on domain   3:     .57757 elapsed seconds
Timing for main: time 2016-02-05_12:42:20 on domain   4:     .72047 elapsed seconds
Timing for main: time 2016-02-05_12:42:40 on domain   4:     .72203 elapsed seconds
Timing for main: time 2016-02-05_12:42:40 on domain   2:    4.89980 elapsed seconds
Timing for main: time 2016-02-05_12:42:53 on domain   3:     .59037 elapsed seconds
Timing for main: time 2016-02-05_12:43:06 on domain   3:     .57740 elapsed seconds
Timing for main: time 2016-02-05_12:43:20 on domain   3:     .57771 elapsed seconds
Timing for main: time 2016-02-05_12:43:00 on domain   4:     .72159 elapsed seconds
Timing for main: time 2016-02-05_12:43:20 on domain   4:     .72083 elapsed seconds
Timing for main: time 2016-02-05_12:43:20 on domain   2:    4.84787 elapsed seconds
Timing for main: time 2016-02-05_12:43:33 on domain   3:     .58848 elapsed seconds
Timing for main: time 2016-02-05_12:43:46 on domain   3:     .57708 elapsed seconds
Timing for main: time 2016-02-05_12:44:00 on domain   3:     .57790 elapsed seconds
Timing for main: time 2016-02-05_12:43:40 on domain   4:     .72039 elapsed seconds
Timing for main: time 2016-02-05_12:44:00 on domain   4:     .72074 elapsed seconds
Timing for main: time 2016-02-05_12:44:00 on domain   2:    4.84664 elapsed seconds
Timing for main: time 2016-02-05_12:44:00 on domain   1:   15.48073 elapsed seconds
Timing for main: time 2016-02-05_12:44:13 on domain   3:     .58831 elapsed seconds
Timing for main: time 2016-02-05_12:44:26 on domain   3:     .57804 elapsed seconds
Timing for main: time 2016-02-05_12:44:40 on domain   3:     .57904 elapsed seconds
Timing for main: time 2016-02-05_12:44:20 on domain   4:     .72131 elapsed seconds
Timing for main: time 2016-02-05_12:44:40 on domain   4:     .72208 elapsed seconds
Timing for main: time 2016-02-05_12:44:40 on domain   2:    4.86366 elapsed seconds
Timing for main: time 2016-02-05_12:44:53 on domain   3:     .58815 elapsed seconds
Timing for main: time 2016-02-05_12:45:06 on domain   3:     .57804 elapsed seconds
Timing for main: time 2016-02-05_12:45:20 on domain   3:     .57759 elapsed seconds
Timing for main: time 2016-02-05_12:45:00 on domain   4:     .76063 elapsed seconds
Timing for main: time 2016-02-05_12:45:20 on domain   4:     .71993 elapsed seconds
Timing for main: time 2016-02-05_12:45:20 on domain   2:    4.88539 elapsed seconds
Timing for main: time 2016-02-05_12:45:33 on domain   3:     .58871 elapsed seconds
Timing for main: time 2016-02-05_12:45:46 on domain   3:     .57716 elapsed seconds
Timing for main: time 2016-02-05_12:46:00 on domain   3:     .60688 elapsed seconds
Timing for main: time 2016-02-05_12:45:40 on domain   4:     .72066 elapsed seconds
Timing for main: time 2016-02-05_12:46:00 on domain   4:     .72002 elapsed seconds
Timing for main: time 2016-02-05_12:46:00 on domain   2:    4.87694 elapsed seconds
Timing for main: time 2016-02-05_12:46:00 on domain   1:   15.51211 elapsed seconds
Timing for main: time 2016-02-05_12:46:13 on domain   3:     .58883 elapsed seconds
Timing for main: time 2016-02-05_12:46:26 on domain   3:     .57779 elapsed seconds
Timing for main: time 2016-02-05_12:46:40 on domain   3:     .57721 elapsed seconds
Timing for main: time 2016-02-05_12:46:20 on domain   4:     .72793 elapsed seconds
Timing for main: time 2016-02-05_12:46:40 on domain   4:     .72006 elapsed seconds
Timing for main: time 2016-02-05_12:46:40 on domain   2:    4.86687 elapsed seconds
Timing for main: time 2016-02-05_12:46:53 on domain   3:     .58798 elapsed seconds
Timing for main: time 2016-02-05_12:47:06 on domain   3:     .57754 elapsed seconds
Timing for main: time 2016-02-05_12:47:20 on domain   3:     .57793 elapsed seconds
Timing for main: time 2016-02-05_12:47:00 on domain   4:     .71972 elapsed seconds
Timing for main: time 2016-02-05_12:47:20 on domain   4:     .72027 elapsed seconds
Timing for main: time 2016-02-05_12:47:20 on domain   2:    4.84619 elapsed seconds
Timing for main: time 2016-02-05_12:47:33 on domain   3:     .58908 elapsed seconds
Timing for main: time 2016-02-05_12:47:46 on domain   3:     .57759 elapsed seconds
Timing for main: time 2016-02-05_12:48:00 on domain   3:     .57819 elapsed seconds
Timing for main: time 2016-02-05_12:47:40 on domain   4:     .72321 elapsed seconds
Timing for main: time 2016-02-05_12:48:00 on domain   4:     .71807 elapsed seconds
Timing for main: time 2016-02-05_12:48:00 on domain   2:    4.88926 elapsed seconds
Timing for main: time 2016-02-05_12:48:00 on domain   1:   15.51219 elapsed seconds
Timing for main: time 2016-02-05_12:48:13 on domain   3:     .58849 elapsed seconds
Timing for main: time 2016-02-05_12:48:26 on domain   3:     .57820 elapsed seconds
Timing for main: time 2016-02-05_12:48:40 on domain   3:     .57727 elapsed seconds
Timing for main: time 2016-02-05_12:48:20 on domain   4:     .72070 elapsed seconds
Timing for main: time 2016-02-05_12:48:40 on domain   4:     .72008 elapsed seconds
Timing for main: time 2016-02-05_12:48:40 on domain   2:    4.86032 elapsed seconds
Timing for main: time 2016-02-05_12:48:53 on domain   3:     .58808 elapsed seconds
Timing for main: time 2016-02-05_12:49:06 on domain   3:     .57759 elapsed seconds
Timing for main: time 2016-02-05_12:49:20 on domain   3:     .58052 elapsed seconds
Timing for main: time 2016-02-05_12:49:00 on domain   4:     .72053 elapsed seconds
Timing for main: time 2016-02-05_12:49:20 on domain   4:     .72055 elapsed seconds
Timing for main: time 2016-02-05_12:49:20 on domain   2:    4.85071 elapsed seconds
Timing for main: time 2016-02-05_12:49:33 on domain   3:     .58853 elapsed seconds
Timing for main: time 2016-02-05_12:49:46 on domain   3:     .57828 elapsed seconds
Timing for main: time 2016-02-05_12:50:00 on domain   3:     .57765 elapsed seconds
Timing for main: time 2016-02-05_12:49:40 on domain   4:     .72271 elapsed seconds
Timing for main: time 2016-02-05_12:50:00 on domain   4:     .75344 elapsed seconds
Timing for main: time 2016-02-05_12:50:00 on domain   2:    4.88258 elapsed seconds
Timing for main: time 2016-02-05_12:50:00 on domain   1:   15.48039 elapsed seconds
Timing for main: time 2016-02-05_12:50:13 on domain   3:     .58848 elapsed seconds
Timing for main: time 2016-02-05_12:50:26 on domain   3:     .57889 elapsed seconds
Timing for main: time 2016-02-05_12:50:40 on domain   3:     .57789 elapsed seconds
Timing for main: time 2016-02-05_12:50:20 on domain   4:     .72070 elapsed seconds
Timing for main: time 2016-02-05_12:50:40 on domain   4:     .72009 elapsed seconds
Timing for main: time 2016-02-05_12:50:40 on domain   2:    4.86068 elapsed seconds
Timing for main: time 2016-02-05_12:50:53 on domain   3:     .58857 elapsed seconds
Timing for main: time 2016-02-05_12:51:06 on domain   3:     .60755 elapsed seconds
Timing for main: time 2016-02-05_12:51:20 on domain   3:     .57767 elapsed seconds
Timing for main: time 2016-02-05_12:51:00 on domain   4:     .72082 elapsed seconds
Timing for main: time 2016-02-05_12:51:20 on domain   4:     .72089 elapsed seconds
Timing for main: time 2016-02-05_12:51:20 on domain   2:    4.87735 elapsed seconds
Timing for main: time 2016-02-05_12:51:33 on domain   3:     .58852 elapsed seconds
Timing for main: time 2016-02-05_12:51:46 on domain   3:     .57758 elapsed seconds
Timing for main: time 2016-02-05_12:52:00 on domain   3:     .57922 elapsed seconds
Timing for main: time 2016-02-05_12:51:40 on domain   4:     .71995 elapsed seconds
Timing for main: time 2016-02-05_12:52:00 on domain   4:     .72176 elapsed seconds
Timing for main: time 2016-02-05_12:52:00 on domain   2:    4.84834 elapsed seconds
Timing for main: time 2016-02-05_12:52:00 on domain   1:   15.47308 elapsed seconds
Timing for main: time 2016-02-05_12:52:13 on domain   3:     .58823 elapsed seconds
Timing for main: time 2016-02-05_12:52:26 on domain   3:     .57793 elapsed seconds
Timing for main: time 2016-02-05_12:52:40 on domain   3:     .57768 elapsed seconds
Timing for main: time 2016-02-05_12:52:20 on domain   4:     .72038 elapsed seconds
Timing for main: time 2016-02-05_12:52:40 on domain   4:     .72014 elapsed seconds
Timing for main: time 2016-02-05_12:52:40 on domain   2:    4.85989 elapsed seconds
Timing for main: time 2016-02-05_12:52:53 on domain   3:     .59554 elapsed seconds
Timing for main: time 2016-02-05_12:53:06 on domain   3:     .57812 elapsed seconds
Timing for main: time 2016-02-05_12:53:20 on domain   3:     .57866 elapsed seconds
Timing for main: time 2016-02-05_12:53:00 on domain   4:     .72093 elapsed seconds
Timing for main: time 2016-02-05_12:53:20 on domain   4:     .71975 elapsed seconds
Timing for main: time 2016-02-05_12:53:20 on domain   2:    4.89430 elapsed seconds
Timing for main: time 2016-02-05_12:53:33 on domain   3:     .58874 elapsed seconds
Timing for main: time 2016-02-05_12:53:46 on domain   3:     .57910 elapsed seconds
Timing for main: time 2016-02-05_12:54:00 on domain   3:     .57790 elapsed seconds
Timing for main: time 2016-02-05_12:53:40 on domain   4:     .72116 elapsed seconds
Timing for main: time 2016-02-05_12:54:00 on domain   4:     .72003 elapsed seconds
Timing for main: time 2016-02-05_12:54:00 on domain   2:    4.84953 elapsed seconds
Timing for main: time 2016-02-05_12:54:00 on domain   1:   15.51090 elapsed seconds
Timing for main: time 2016-02-05_12:54:13 on domain   3:     .58874 elapsed seconds
Timing for main: time 2016-02-05_12:54:26 on domain   3:     .58256 elapsed seconds
Timing for main: time 2016-02-05_12:54:40 on domain   3:     .57797 elapsed seconds
Timing for main: time 2016-02-05_12:54:20 on domain   4:     .72088 elapsed seconds
Timing for main: time 2016-02-05_12:54:40 on domain   4:     .72129 elapsed seconds
Timing for main: time 2016-02-05_12:54:40 on domain   2:    4.86736 elapsed seconds
Timing for main: time 2016-02-05_12:54:53 on domain   3:     .58864 elapsed seconds
Timing for main: time 2016-02-05_12:55:06 on domain   3:     .57829 elapsed seconds
Timing for main: time 2016-02-05_12:55:20 on domain   3:     .57859 elapsed seconds
Timing for main: time 2016-02-05_12:55:00 on domain   4:     .75546 elapsed seconds
Timing for main: time 2016-02-05_12:55:20 on domain   4:     .71987 elapsed seconds
Timing for main: time 2016-02-05_12:55:20 on domain   2:    4.88380 elapsed seconds
Timing for main: time 2016-02-05_12:55:33 on domain   3:     .58955 elapsed seconds
Timing for main: time 2016-02-05_12:55:46 on domain   3:     .57910 elapsed seconds
Timing for main: time 2016-02-05_12:56:00 on domain   3:     .57799 elapsed seconds
Timing for main: time 2016-02-05_12:55:40 on domain   4:     .72043 elapsed seconds
Timing for main: time 2016-02-05_12:56:00 on domain   4:     .72087 elapsed seconds
Timing for main: time 2016-02-05_12:56:00 on domain   2:    4.84986 elapsed seconds
Timing for main: time 2016-02-05_12:56:00 on domain   1:   15.48821 elapsed seconds
Timing for main: time 2016-02-05_12:56:13 on domain   3:     .72855 elapsed seconds
Timing for main: time 2016-02-05_12:56:26 on domain   3:     .57661 elapsed seconds
Timing for main: time 2016-02-05_12:56:40 on domain   3:     .57845 elapsed seconds
Timing for main: time 2016-02-05_12:56:20 on domain   4:     .72014 elapsed seconds
Timing for main: time 2016-02-05_12:56:40 on domain   4:     .72080 elapsed seconds
Timing for main: time 2016-02-05_12:56:40 on domain   2:    5.00064 elapsed seconds
Timing for main: time 2016-02-05_12:56:53 on domain   3:     .58895 elapsed seconds
Timing for main: time 2016-02-05_12:57:06 on domain   3:     .57907 elapsed seconds
Timing for main: time 2016-02-05_12:57:20 on domain   3:     .58016 elapsed seconds
Timing for main: time 2016-02-05_12:57:00 on domain   4:     .72019 elapsed seconds
Timing for main: time 2016-02-05_12:57:20 on domain   4:     .72138 elapsed seconds
Timing for main: time 2016-02-05_12:57:20 on domain   2:    4.85604 elapsed seconds
Timing for main: time 2016-02-05_12:57:33 on domain   3:     .58960 elapsed seconds
Timing for main: time 2016-02-05_12:57:46 on domain   3:     .58064 elapsed seconds
Timing for main: time 2016-02-05_12:58:00 on domain   3:     .58243 elapsed seconds
Timing for main: time 2016-02-05_12:57:40 on domain   4:     .72025 elapsed seconds
Timing for main: time 2016-02-05_12:58:00 on domain   4:     .72067 elapsed seconds
Timing for main: time 2016-02-05_12:58:00 on domain   2:    4.85624 elapsed seconds
Timing for main: time 2016-02-05_12:58:00 on domain   1:   15.59859 elapsed seconds
  photolysis_driver: called for domain  1
Timing for main: time 2016-02-05_12:58:13 on domain   3:     .59036 elapsed seconds
Timing for main: time 2016-02-05_12:58:26 on domain   3:     .57915 elapsed seconds
Timing for main: time 2016-02-05_12:58:40 on domain   3:     .57891 elapsed seconds
Timing for main: time 2016-02-05_12:58:20 on domain   4:     .72041 elapsed seconds
Timing for main: time 2016-02-05_12:58:40 on domain   4:     .72042 elapsed seconds
Timing for main: time 2016-02-05_12:58:40 on domain   2:    4.90312 elapsed seconds
Timing for main: time 2016-02-05_12:58:53 on domain   3:     .58935 elapsed seconds
Timing for main: time 2016-02-05_12:59:06 on domain   3:     .57894 elapsed seconds
Timing for main: time 2016-02-05_12:59:20 on domain   3:     .58078 elapsed seconds
Timing for main: time 2016-02-05_12:59:00 on domain   4:     .72040 elapsed seconds
Timing for main: time 2016-02-05_12:59:20 on domain   4:     .72218 elapsed seconds
Timing for main: time 2016-02-05_12:59:20 on domain   2:    4.85470 elapsed seconds
  photolysis_driver: called for domain  2
Timing for main: time 2016-02-05_12:59:33 on domain   3:     .59044 elapsed seconds
Timing for main: time 2016-02-05_12:59:46 on domain   3:     .57972 elapsed seconds
  photolysis_driver: called for domain  3
Timing for main: time 2016-02-05_13:00:00 on domain   3:    4.05168 elapsed seconds
Timing for main: time 2016-02-05_12:59:40 on domain   4:     .72070 elapsed seconds
  photolysis_driver: called for domain  4
Timing for main: time 2016-02-05_13:00:00 on domain   4:    4.82161 elapsed seconds
Timing for main: time 2016-02-05_13:00:00 on domain   2:   16.81489 elapsed seconds
Timing for main: time 2016-02-05_13:00:00 on domain   1:   29.95787 elapsed seconds
Timing for Writing wrfout_d01_2016-02-05_13:00:00 for domain        1:    1.17129 elapsed seconds
  HOURLY EMISSIONS UPDATE TIME     3600.0        .0
 mediation_integrate: med_read_wrf_chem_emissions: Read emissions for time 2016-02-05_13:00:00
 **WARNING** Time in input file not being checked **WARNING**
Timing for Writing wrfout_d02_2016-02-05_13:00:00 for domain        2:    1.99010 elapsed seconds
Timing for Writing wrfout_d03_2016-02-05_13:00:00 for domain        3:    1.50179 elapsed seconds
Timing for main: time 2016-02-05_13:00:13 on domain   3:    2.79903 elapsed seconds
Timing for main: time 2016-02-05_13:00:26 on domain   3:     .61082 elapsed seconds
Timing for main: time 2016-02-05_13:00:40 on domain   3:     .57915 elapsed seconds
Timing for Writing wrfout_d04_2016-02-05_13:00:00 for domain        4:    1.71503 elapsed seconds
Timing for main: time 2016-02-05_13:00:20 on domain   4:    3.30027 elapsed seconds
Timing for main: time 2016-02-05_13:00:40 on domain   4:     .72314 elapsed seconds
Timing for main: time 2016-02-05_13:00:40 on domain   2:   12.57628 elapsed seconds
Timing for main: time 2016-02-05_13:00:53 on domain   3:     .59039 elapsed seconds
Timing for main: time 2016-02-05_13:01:06 on domain   3:     .57913 elapsed seconds
Timing for main: time 2016-02-05_13:01:20 on domain   3:     .60930 elapsed seconds
Timing for main: time 2016-02-05_13:01:00 on domain   4:     .72283 elapsed seconds
Timing for main: time 2016-02-05_13:01:20 on domain   4:     .71973 elapsed seconds
Timing for main: time 2016-02-05_13:01:20 on domain   2:    4.88504 elapsed seconds
Timing for main: time 2016-02-05_13:01:33 on domain   3:     .59064 elapsed seconds
Timing for main: time 2016-02-05_13:01:46 on domain   3:     .57901 elapsed seconds
Timing for main: time 2016-02-05_13:02:00 on domain   3:     .57961 elapsed seconds
Timing for main: time 2016-02-05_13:01:40 on domain   4:     .72078 elapsed seconds
Timing for main: time 2016-02-05_13:02:00 on domain   4:     .71969 elapsed seconds
Timing for main: time 2016-02-05_13:02:00 on domain   2:    4.85492 elapsed seconds
Timing for main: time 2016-02-05_13:02:00 on domain   1:   27.09651 elapsed seconds
Timing for main: time 2016-02-05_13:02:13 on domain   3:     .59106 elapsed seconds
Timing for main: time 2016-02-05_13:02:26 on domain   3:     .58067 elapsed seconds
Timing for main: time 2016-02-05_13:02:40 on domain   3:     .57860 elapsed seconds
Timing for main: time 2016-02-05_13:02:20 on domain   4:     .72988 elapsed seconds
Timing for main: time 2016-02-05_13:02:40 on domain   4:     .71885 elapsed seconds
Timing for main: time 2016-02-05_13:02:40 on domain   2:    4.87461 elapsed seconds
Timing for main: time 2016-02-05_13:02:53 on domain   3:     .59194 elapsed seconds
Timing for main: time 2016-02-05_13:03:06 on domain   3:     .57988 elapsed seconds
Timing for main: time 2016-02-05_13:03:20 on domain   3:     .58063 elapsed seconds
Timing for main: time 2016-02-05_13:03:00 on domain   4:     .72055 elapsed seconds
Timing for main: time 2016-02-05_13:03:20 on domain   4:     .72043 elapsed seconds
Timing for main: time 2016-02-05_13:03:20 on domain   2:    4.85844 elapsed seconds
Timing for main: time 2016-02-05_13:03:33 on domain   3:     .59095 elapsed seconds
Timing for main: time 2016-02-05_13:03:46 on domain   3:     .57937 elapsed seconds
Timing for main: time 2016-02-05_13:04:00 on domain   3:     .58023 elapsed seconds
Timing for main: time 2016-02-05_13:03:40 on domain   4:     .72277 elapsed seconds
Timing for main: time 2016-02-05_13:04:00 on domain   4:     .72043 elapsed seconds
Timing for main: time 2016-02-05_13:04:00 on domain   2:    4.89596 elapsed seconds
Timing for main: time 2016-02-05_13:04:00 on domain   1:   15.51717 elapsed seconds
Timing for main: time 2016-02-05_13:04:13 on domain   3:     .59190 elapsed seconds
Timing for main: time 2016-02-05_13:04:26 on domain   3:     .57945 elapsed seconds
Timing for main: time 2016-02-05_13:04:40 on domain   3:     .58025 elapsed seconds
Timing for main: time 2016-02-05_13:04:20 on domain   4:     .72056 elapsed seconds
Timing for main: time 2016-02-05_13:04:40 on domain   4:     .72068 elapsed seconds
Timing for main: time 2016-02-05_13:04:40 on domain   2:    4.86947 elapsed seconds
Timing for main: time 2016-02-05_13:04:53 on domain   3:     .59070 elapsed seconds
Timing for main: time 2016-02-05_13:05:06 on domain   3:     .58076 elapsed seconds
Timing for main: time 2016-02-05_13:05:20 on domain   3:     .58235 elapsed seconds
Timing for main: time 2016-02-05_13:05:00 on domain   4:     .75668 elapsed seconds
Timing for main: time 2016-02-05_13:05:20 on domain   4:     .72062 elapsed seconds
Timing for main: time 2016-02-05_13:05:20 on domain   2:    4.89512 elapsed seconds
Timing for main: time 2016-02-05_13:05:33 on domain   3:     .58986 elapsed seconds
Timing for main: time 2016-02-05_13:05:46 on domain   3:     .57941 elapsed seconds
Timing for main: time 2016-02-05_13:06:00 on domain   3:     .58013 elapsed seconds
Timing for main: time 2016-02-05_13:05:40 on domain   4:     .72089 elapsed seconds
Timing for main: time 2016-02-05_13:06:00 on domain   4:     .74061 elapsed seconds
Timing for main: time 2016-02-05_13:06:00 on domain   2:    4.87422 elapsed seconds
Timing for main: time 2016-02-05_13:06:00 on domain   1:   15.54811 elapsed seconds
Timing for main: time 2016-02-05_13:06:13 on domain   3:     .59006 elapsed seconds
Timing for main: time 2016-02-05_13:06:26 on domain   3:     .61272 elapsed seconds
Timing for main: time 2016-02-05_13:06:40 on domain   3:     .58003 elapsed seconds
Timing for main: time 2016-02-05_13:06:20 on domain   4:     .72025 elapsed seconds
Timing for main: time 2016-02-05_13:06:40 on domain   4:     .72084 elapsed seconds
Timing for main: time 2016-02-05_13:06:40 on domain   2:    4.90105 elapsed seconds
Timing for main: time 2016-02-05_13:06:53 on domain   3:     .59036 elapsed seconds
Timing for main: time 2016-02-05_13:07:06 on domain   3:     .57995 elapsed seconds
Timing for main: time 2016-02-05_13:07:20 on domain   3:     .57906 elapsed seconds
Timing for main: time 2016-02-05_13:07:00 on domain   4:     .71955 elapsed seconds
Timing for main: time 2016-02-05_13:07:20 on domain   4:     .72085 elapsed seconds
Timing for main: time 2016-02-05_13:07:20 on domain   2:    4.85990 elapsed seconds
Timing for main: time 2016-02-05_13:07:33 on domain   3:     .58916 elapsed seconds
Timing for main: time 2016-02-05_13:07:46 on domain   3:     .58222 elapsed seconds
Timing for main: time 2016-02-05_13:08:00 on domain   3:     .57902 elapsed seconds
Timing for main: time 2016-02-05_13:07:40 on domain   4:     .72065 elapsed seconds
Timing for main: time 2016-02-05_13:08:00 on domain   4:     .72061 elapsed seconds
Timing for main: time 2016-02-05_13:08:00 on domain   2:    4.85574 elapsed seconds
Timing for main: time 2016-02-05_13:08:00 on domain   1:   15.49806 elapsed seconds
Timing for main: time 2016-02-05_13:08:13 on domain   3:     .59089 elapsed seconds
Timing for main: time 2016-02-05_13:08:26 on domain   3:     .57913 elapsed seconds
Timing for main: time 2016-02-05_13:08:40 on domain   3:     .58028 elapsed seconds
Timing for main: time 2016-02-05_13:08:20 on domain   4:     .72170 elapsed seconds
Timing for main: time 2016-02-05_13:08:40 on domain   4:     .71943 elapsed seconds
Timing for main: time 2016-02-05_13:08:40 on domain   2:    4.86745 elapsed seconds
Timing for main: time 2016-02-05_13:08:53 on domain   3:     .59815 elapsed seconds
Timing for main: time 2016-02-05_13:09:06 on domain   3:     .58003 elapsed seconds
Timing for main: time 2016-02-05_13:09:20 on domain   3:     .68202 elapsed seconds
Timing for main: time 2016-02-05_13:09:00 on domain   4:     .72167 elapsed seconds
Timing for main: time 2016-02-05_13:09:20 on domain   4:     .72196 elapsed seconds
Timing for main: time 2016-02-05_13:09:20 on domain   2:    5.00554 elapsed seconds
Timing for main: time 2016-02-05_13:09:33 on domain   3:     .59080 elapsed seconds
Timing for main: time 2016-02-05_13:09:46 on domain   3:     .58083 elapsed seconds
Timing for main: time 2016-02-05_13:10:00 on domain   3:     .57943 elapsed seconds
Timing for main: time 2016-02-05_13:09:40 on domain   4:     .72144 elapsed seconds
Timing for main: time 2016-02-05_13:10:00 on domain   4:     .75535 elapsed seconds
Timing for main: time 2016-02-05_13:10:00 on domain   2:    4.89177 elapsed seconds
Timing for main: time 2016-02-05_13:10:00 on domain   1:   15.65148 elapsed seconds
Timing for main: time 2016-02-05_13:10:13 on domain   3:     .59078 elapsed seconds
Timing for main: time 2016-02-05_13:10:26 on domain   3:     .57922 elapsed seconds
Timing for main: time 2016-02-05_13:10:40 on domain   3:     .58124 elapsed seconds
Timing for main: time 2016-02-05_13:10:20 on domain   4:     .71986 elapsed seconds
Timing for main: time 2016-02-05_13:10:40 on domain   4:     .72026 elapsed seconds
Timing for main: time 2016-02-05_13:10:40 on domain   2:    4.86829 elapsed seconds
Timing for main: time 2016-02-05_13:10:53 on domain   3:     .59069 elapsed seconds
Timing for main: time 2016-02-05_13:11:06 on domain   3:     .57991 elapsed seconds
Timing for main: time 2016-02-05_13:11:20 on domain   3:     .57993 elapsed seconds
Timing for main: time 2016-02-05_13:11:00 on domain   4:     .71984 elapsed seconds
Timing for main: time 2016-02-05_13:11:20 on domain   4:     .72023 elapsed seconds
Timing for main: time 2016-02-05_13:11:20 on domain   2:    4.85412 elapsed seconds
Timing for main: time 2016-02-05_13:11:33 on domain   3:     .62060 elapsed seconds
Timing for main: time 2016-02-05_13:11:46 on domain   3:     .58017 elapsed seconds
Timing for main: time 2016-02-05_13:12:00 on domain   3:     .57993 elapsed seconds
Timing for main: time 2016-02-05_13:11:40 on domain   4:     .72053 elapsed seconds
Timing for main: time 2016-02-05_13:12:00 on domain   4:     .72047 elapsed seconds
Timing for main: time 2016-02-05_13:12:00 on domain   2:    4.88547 elapsed seconds
Timing for main: time 2016-02-05_13:12:00 on domain   1:   15.51588 elapsed seconds
Timing for main: time 2016-02-05_13:12:13 on domain   3:     .59080 elapsed seconds
Timing for main: time 2016-02-05_13:12:26 on domain   3:     .58067 elapsed seconds
Timing for main: time 2016-02-05_13:12:40 on domain   3:     .58189 elapsed seconds
Timing for main: time 2016-02-05_13:12:20 on domain   4:     .72037 elapsed seconds
Timing for main: time 2016-02-05_13:12:40 on domain   4:     .72085 elapsed seconds
Timing for main: time 2016-02-05_13:12:40 on domain   2:    4.87115 elapsed seconds
Timing for main: time 2016-02-05_13:12:53 on domain   3:     .59103 elapsed seconds
Timing for main: time 2016-02-05_13:13:06 on domain   3:     .58018 elapsed seconds
Timing for main: time 2016-02-05_13:13:20 on domain   3:     .58391 elapsed seconds
Timing for main: time 2016-02-05_13:13:00 on domain   4:     .71984 elapsed seconds
Timing for main: time 2016-02-05_13:13:20 on domain   4:     .72017 elapsed seconds
Timing for main: time 2016-02-05_13:13:20 on domain   2:    4.86160 elapsed seconds
Timing for main: time 2016-02-05_13:13:33 on domain   3:     .59311 elapsed seconds
Timing for main: time 2016-02-05_13:13:46 on domain   3:     .57798 elapsed seconds
Timing for main: time 2016-02-05_13:14:00 on domain   3:     .58180 elapsed seconds
Timing for main: time 2016-02-05_13:13:40 on domain   4:     .72050 elapsed seconds
Timing for main: time 2016-02-05_13:14:00 on domain   4:     .72040 elapsed seconds
Timing for main: time 2016-02-05_13:14:00 on domain   2:    4.85757 elapsed seconds
Timing for main: time 2016-02-05_13:14:00 on domain   1:   15.47729 elapsed seconds
Timing for main: time 2016-02-05_13:14:13 on domain   3:     .58989 elapsed seconds
Timing for main: time 2016-02-05_13:14:26 on domain   3:     .62818 elapsed seconds
Timing for main: time 2016-02-05_13:14:40 on domain   3:     .57958 elapsed seconds
Timing for main: time 2016-02-05_13:14:20 on domain   4:     .72064 elapsed seconds
Timing for main: time 2016-02-05_13:14:40 on domain   4:     .72060 elapsed seconds
Timing for main: time 2016-02-05_13:14:40 on domain   2:    4.95445 elapsed seconds
Timing for main: time 2016-02-05_13:14:53 on domain   3:     .59050 elapsed seconds
Timing for main: time 2016-02-05_13:15:06 on domain   3:     .57956 elapsed seconds
Timing for main: time 2016-02-05_13:15:20 on domain   3:     .57984 elapsed seconds
Timing for main: time 2016-02-05_13:15:00 on domain   4:     .75554 elapsed seconds
Timing for main: time 2016-02-05_13:15:20 on domain   4:     .72021 elapsed seconds
Timing for main: time 2016-02-05_13:15:20 on domain   2:    4.88900 elapsed seconds
Timing for main: time 2016-02-05_13:15:33 on domain   3:     .59080 elapsed seconds
Timing for main: time 2016-02-05_13:15:46 on domain   3:     .58082 elapsed seconds
Timing for main: time 2016-02-05_13:16:00 on domain   3:     .58002 elapsed seconds
Timing for main: time 2016-02-05_13:15:40 on domain   4:     .72065 elapsed seconds
Timing for main: time 2016-02-05_13:16:00 on domain   4:     .72052 elapsed seconds
Timing for main: time 2016-02-05_13:16:00 on domain   2:    4.85540 elapsed seconds
Timing for main: time 2016-02-05_13:16:00 on domain   1:   15.68458 elapsed seconds
Timing for main: time 2016-02-05_13:16:13 on domain   3:     .59075 elapsed seconds
Timing for main: time 2016-02-05_13:16:26 on domain   3:     .57993 elapsed seconds
Timing for main: time 2016-02-05_13:16:40 on domain   3:     .60991 elapsed seconds
Timing for main: time 2016-02-05_13:16:20 on domain   4:     .72108 elapsed seconds
Timing for main: time 2016-02-05_13:16:40 on domain   4:     .72217 elapsed seconds
Timing for main: time 2016-02-05_13:16:40 on domain   2:    4.90109 elapsed seconds
Timing for main: time 2016-02-05_13:16:53 on domain   3:     .59191 elapsed seconds
Timing for main: time 2016-02-05_13:17:06 on domain   3:     .58069 elapsed seconds
Timing for main: time 2016-02-05_13:17:20 on domain   3:     .57972 elapsed seconds
Timing for main: time 2016-02-05_13:17:00 on domain   4:     .71964 elapsed seconds
Timing for main: time 2016-02-05_13:17:20 on domain   4:     .72029 elapsed seconds
Timing for main: time 2016-02-05_13:17:20 on domain   2:    4.85620 elapsed seconds
[...]
Timing for main: time 2016-02-05_17:36:00 on domain   2:    4.90836 elapsed seconds
Timing for main: time 2016-02-05_17:36:00 on domain   1:   15.60941 elapsed seconds
Timing for main: time 2016-02-05_17:36:13 on domain   3:     .59137 elapsed seconds
Timing for main: time 2016-02-05_17:36:26 on domain   3:     .57942 elapsed seconds
Timing for main: time 2016-02-05_17:36:40 on domain   3:     .57975 elapsed seconds
Timing for main: time 2016-02-05_17:36:20 on domain   4:     .72844 elapsed seconds
Timing for main: time 2016-02-05_17:36:40 on domain   4:     .72307 elapsed seconds
Timing for main: time 2016-02-05_17:36:40 on domain   2:    4.88514 elapsed seconds
Timing for main: time 2016-02-05_17:36:53 on domain   3:     .59057 elapsed seconds
Timing for main: time 2016-02-05_17:37:06 on domain   3:     .57911 elapsed seconds
Timing for main: time 2016-02-05_17:37:20 on domain   3:     .60966 elapsed seconds
Timing for main: time 2016-02-05_17:37:00 on domain   4:     .72608 elapsed seconds
Timing for main: time 2016-02-05_17:37:20 on domain   4:     .72093 elapsed seconds
Timing for main: time 2016-02-05_17:37:20 on domain   2:    4.90059 elapsed seconds
Timing for main: time 2016-02-05_17:37:33 on domain   3:     .59039 elapsed seconds
Timing for main: time 2016-02-05_17:37:46 on domain   3:     .57963 elapsed seconds
Timing for main: time 2016-02-05_17:38:00 on domain   3:     .57985 elapsed seconds
Timing for main: time 2016-02-05_17:37:40 on domain   4:     .72336 elapsed seconds
Timing for main: time 2016-02-05_17:38:00 on domain   4:     .72471 elapsed seconds
Timing for main: time 2016-02-05_17:38:00 on domain   2:    4.86914 elapsed seconds
Timing for main: time 2016-02-05_17:38:00 on domain   1:   15.54243 elapsed seconds
Timing for main: time 2016-02-05_17:38:13 on domain   3:     .59017 elapsed seconds
Timing for main: time 2016-02-05_17:38:26 on domain   3:     .57941 elapsed seconds
Timing for main: time 2016-02-05_17:38:40 on domain   3:     .58033 elapsed seconds
Timing for main: time 2016-02-05_17:38:20 on domain   4:     .81849 elapsed seconds
Timing for main: time 2016-02-05_17:38:40 on domain   4:     .72417 elapsed seconds
Timing for main: time 2016-02-05_17:38:40 on domain   2:    4.97454 elapsed seconds
Timing for main: time 2016-02-05_17:38:53 on domain   3:     .59083 elapsed seconds
Timing for main: time 2016-02-05_17:39:06 on domain   3:     .57880 elapsed seconds
Timing for main: time 2016-02-05_17:39:20 on domain   3:     .58134 elapsed seconds
Timing for main: time 2016-02-05_17:39:00 on domain   4:     .72326 elapsed seconds
Timing for main: time 2016-02-05_17:39:20 on domain   4:     .72290 elapsed seconds
Timing for main: time 2016-02-05_17:39:20 on domain   2:    4.86763 elapsed seconds
Timing for main: time 2016-02-05_17:39:33 on domain   3:     .59091 elapsed seconds
Timing for main: time 2016-02-05_17:39:46 on domain   3:     .58027 elapsed seconds
Timing for main: time 2016-02-05_17:40:00 on domain   3:     .57932 elapsed seconds
Timing for main: time 2016-02-05_17:39:40 on domain   4:     .72265 elapsed seconds
Timing for main: time 2016-02-05_17:40:00 on domain   4:     .75852 elapsed seconds
Timing for main: time 2016-02-05_17:40:00 on domain   2:    4.91353 elapsed seconds
Timing for main: time 2016-02-05_17:40:00 on domain   1:   15.64522 elapsed seconds
Timing for main: time 2016-02-05_17:40:13 on domain   3:     .59013 elapsed seconds
Timing for main: time 2016-02-05_17:40:26 on domain   3:     .58081 elapsed seconds
Timing for main: time 2016-02-05_17:40:40 on domain   3:     .57997 elapsed seconds
Timing for main: time 2016-02-05_17:40:20 on domain   4:     .72560 elapsed seconds
Timing for main: time 2016-02-05_17:40:40 on domain   4:     .72287 elapsed seconds
Timing for main: time 2016-02-05_17:40:40 on domain   2:    4.88094 elapsed seconds
Timing for main: time 2016-02-05_17:40:53 on domain   3:     .58992 elapsed seconds
Timing for main: time 2016-02-05_17:41:06 on domain   3:     .57987 elapsed seconds
Timing for main: time 2016-02-05_17:41:20 on domain   3:     .58210 elapsed seconds
Timing for main: time 2016-02-05_17:41:00 on domain   4:     .72391 elapsed seconds
Timing for main: time 2016-02-05_17:41:20 on domain   4:     .72243 elapsed seconds
Timing for main: time 2016-02-05_17:41:20 on domain   2:    4.90370 elapsed seconds
Timing for main: time 2016-02-05_17:41:33 on domain   3:     .59069 elapsed seconds
Timing for main: time 2016-02-05_17:41:46 on domain   3:     .58250 elapsed seconds
Timing for main: time 2016-02-05_17:42:00 on domain   3:     .57940 elapsed seconds
Timing for main: time 2016-02-05_17:41:40 on domain   4:     .72416 elapsed seconds
Timing for main: time 2016-02-05_17:42:00 on domain   4:     .72572 elapsed seconds
Timing for main: time 2016-02-05_17:42:00 on domain   2:    4.87281 elapsed seconds
Timing for main: time 2016-02-05_17:42:00 on domain   1:   15.57446 elapsed seconds
Timing for main: time 2016-02-05_17:42:13 on domain   3:     .59049 elapsed seconds
Timing for main: time 2016-02-05_17:42:26 on domain   3:     .61019 elapsed seconds
Timing for main: time 2016-02-05_17:42:40 on domain   3:     .57951 elapsed seconds
Timing for main: time 2016-02-05_17:42:20 on domain   4:     .72287 elapsed seconds
Timing for main: time 2016-02-05_17:42:40 on domain   4:     .72308 elapsed seconds
Timing for main: time 2016-02-05_17:42:40 on domain   2:    4.90856 elapsed seconds
Timing for main: time 2016-02-05_17:42:53 on domain   3:     .59315 elapsed seconds
Timing for main: time 2016-02-05_17:43:06 on domain   3:     .58018 elapsed seconds
Timing for main: time 2016-02-05_17:43:20 on domain   3:     .57814 elapsed seconds
Timing for main: time 2016-02-05_17:43:00 on domain   4:     .72468 elapsed seconds
Timing for main: time 2016-02-05_17:43:20 on domain   4:     .72207 elapsed seconds
Timing for main: time 2016-02-05_17:43:20 on domain   2:    4.86842 elapsed seconds
Timing for main: time 2016-02-05_17:43:33 on domain   3:     .59096 elapsed seconds
Timing for main: time 2016-02-05_17:43:46 on domain   3:     .57866 elapsed seconds
Timing for main: time 2016-02-05_17:44:00 on domain   3:     .57995 elapsed seconds
Timing for main: time 2016-02-05_17:43:40 on domain   4:     .72369 elapsed seconds
Timing for main: time 2016-02-05_17:44:00 on domain   4:     .72358 elapsed seconds
Timing for main: time 2016-02-05_17:44:00 on domain   2:    4.86601 elapsed seconds
Timing for main: time 2016-02-05_17:44:00 on domain   1:   15.53250 elapsed seconds
Timing for main: time 2016-02-05_17:44:13 on domain   3:     .59011 elapsed seconds
Timing for main: time 2016-02-05_17:44:26 on domain   3:     .57953 elapsed seconds
Timing for main: time 2016-02-05_17:44:40 on domain   3:     .57995 elapsed seconds
Timing for main: time 2016-02-05_17:44:20 on domain   4:     .72314 elapsed seconds
Timing for main: time 2016-02-05_17:44:40 on domain   4:     .72267 elapsed seconds
Timing for main: time 2016-02-05_17:44:40 on domain   2:    4.87886 elapsed seconds
Timing for main: time 2016-02-05_17:44:53 on domain   3:     .58994 elapsed seconds
Timing for main: time 2016-02-05_17:45:06 on domain   3:     .58169 elapsed seconds
Timing for main: time 2016-02-05_17:45:20 on domain   3:     .57913 elapsed seconds
Timing for main: time 2016-02-05_17:45:00 on domain   4:     .75868 elapsed seconds
Timing for main: time 2016-02-05_17:45:20 on domain   4:     .72300 elapsed seconds
Timing for main: time 2016-02-05_17:45:20 on domain   2:    4.90205 elapsed seconds
Timing for main: time 2016-02-05_17:45:33 on domain   3:     .59044 elapsed seconds
Timing for main: time 2016-02-05_17:45:46 on domain   3:     .58659 elapsed seconds
Timing for main: time 2016-02-05_17:46:00 on domain   3:     .58026 elapsed seconds
Timing for main: time 2016-02-05_17:45:40 on domain   4:     .72446 elapsed seconds
Timing for main: time 2016-02-05_17:46:00 on domain   4:     .72253 elapsed seconds
Timing for main: time 2016-02-05_17:46:00 on domain   2:    4.87487 elapsed seconds
Timing for main: time 2016-02-05_17:46:00 on domain   1:   15.54370 elapsed seconds
Timing for main: time 2016-02-05_17:46:13 on domain   3:     .58744 elapsed seconds
Timing for main: time 2016-02-05_17:46:26 on domain   3:     .58002 elapsed seconds
Timing for main: time 2016-02-05_17:46:40 on domain   3:     .57955 elapsed seconds
Timing for main: time 2016-02-05_17:46:20 on domain   4:     .72293 elapsed seconds
Timing for main: time 2016-02-05_17:46:40 on domain   4:     .72278 elapsed seconds
Timing for main: time 2016-02-05_17:46:40 on domain   2:    4.91651 elapsed seconds
Timing for main: time 2016-02-05_17:46:53 on domain   3:     .59104 elapsed seconds
Timing for main: time 2016-02-05_17:47:06 on domain   3:     .57924 elapsed seconds
Timing for main: time 2016-02-05_17:47:20 on domain   3:     .58206 elapsed seconds
Timing for main: time 2016-02-05_17:47:00 on domain   4:     .72379 elapsed seconds
Timing for main: time 2016-02-05_17:47:20 on domain   4:     .72423 elapsed seconds
Timing for main: time 2016-02-05_17:47:20 on domain   2:    4.87216 elapsed seconds
Timing for main: time 2016-02-05_17:47:33 on domain   3:     .61982 elapsed seconds
Timing for main: time 2016-02-05_17:47:46 on domain   3:     .57994 elapsed seconds
Timing for main: time 2016-02-05_17:48:00 on domain   3:     .57907 elapsed seconds
Timing for main: time 2016-02-05_17:47:40 on domain   4:     .72374 elapsed seconds
Timing for main: time 2016-02-05_17:48:00 on domain   4:     .72281 elapsed seconds
Timing for main: time 2016-02-05_17:48:00 on domain   2:    4.89503 elapsed seconds
Timing for main: time 2016-02-05_17:48:00 on domain   1:   15.59883 elapsed seconds
Timing for main: time 2016-02-05_17:48:13 on domain   3:     .59061 elapsed seconds
Timing for main: time 2016-02-05_17:48:26 on domain   3:     .58135 elapsed seconds
Timing for main: time 2016-02-05_17:48:40 on domain   3:     .57905 elapsed seconds
Timing for main: time 2016-02-05_17:48:20 on domain   4:     .72384 elapsed seconds
Timing for main: time 2016-02-05_17:48:40 on domain   4:     .72261 elapsed seconds
Timing for main: time 2016-02-05_17:48:40 on domain   2:    4.88109 elapsed seconds
Timing for main: time 2016-02-05_17:48:53 on domain   3:     .59027 elapsed seconds
Timing for main: time 2016-02-05_17:49:06 on domain   3:     .57993 elapsed seconds
Timing for main: time 2016-02-05_17:49:20 on domain   3:     .66574 elapsed seconds
Timing for main: time 2016-02-05_17:49:00 on domain   4:     .72329 elapsed seconds
Timing for main: time 2016-02-05_17:49:20 on domain   4:     .72371 elapsed seconds
Timing for main: time 2016-02-05_17:49:20 on domain   2:    4.95189 elapsed seconds
Timing for main: time 2016-02-05_17:49:33 on domain   3:     .59096 elapsed seconds
Timing for main: time 2016-02-05_17:49:46 on domain   3:     .57932 elapsed seconds
Timing for main: time 2016-02-05_17:50:00 on domain   3:     .57947 elapsed seconds
Timing for main: time 2016-02-05_17:49:40 on domain   4:     .72346 elapsed seconds
Timing for main: time 2016-02-05_17:50:00 on domain   4:     .75671 elapsed seconds
Timing for main: time 2016-02-05_17:50:00 on domain   2:    4.89947 elapsed seconds
Timing for main: time 2016-02-05_17:50:00 on domain   1:   15.62059 elapsed seconds
Timing for main: time 2016-02-05_17:50:13 on domain   3:     .59046 elapsed seconds
Timing for main: time 2016-02-05_17:50:26 on domain   3:     .57895 elapsed seconds
Timing for main: time 2016-02-05_17:50:40 on domain   3:     .57914 elapsed seconds
Timing for main: time 2016-02-05_17:50:20 on domain   4:     .72316 elapsed seconds
Timing for main: time 2016-02-05_17:50:40 on domain   4:     .72212 elapsed seconds
Timing for main: time 2016-02-05_17:50:40 on domain   2:    4.87678 elapsed seconds
Timing for main: time 2016-02-05_17:50:53 on domain   3:     .59777 elapsed seconds
Timing for main: time 2016-02-05_17:51:06 on domain   3:     .57657 elapsed seconds
Timing for main: time 2016-02-05_17:51:20 on domain   3:     .57883 elapsed seconds
Timing for main: time 2016-02-05_17:51:00 on domain   4:     .72371 elapsed seconds
Timing for main: time 2016-02-05_17:51:20 on domain   4:     .72224 elapsed seconds
Timing for main: time 2016-02-05_17:51:20 on domain   2:    4.86966 elapsed seconds
Timing for main: time 2016-02-05_17:51:33 on domain   3:     .59013 elapsed seconds
Timing for main: time 2016-02-05_17:51:46 on domain   3:     .57933 elapsed seconds
Timing for main: time 2016-02-05_17:52:00 on domain   3:     .57933 elapsed seconds
Timing for main: time 2016-02-05_17:51:40 on domain   4:     .72310 elapsed seconds
Timing for main: time 2016-02-05_17:52:00 on domain   4:     .72505 elapsed seconds
Timing for main: time 2016-02-05_17:52:00 on domain   2:    4.90560 elapsed seconds
Timing for main: time 2016-02-05_17:52:00 on domain   1:   15.54064 elapsed seconds
Timing for main: time 2016-02-05_17:52:13 on domain   3:     .59054 elapsed seconds
Timing for main: time 2016-02-05_17:52:26 on domain   3:     .57873 elapsed seconds
Timing for main: time 2016-02-05_17:52:40 on domain   3:     .61008 elapsed seconds
Timing for main: time 2016-02-05_17:52:20 on domain   4:     .72395 elapsed seconds
Timing for main: time 2016-02-05_17:52:40 on domain   4:     .72193 elapsed seconds
Timing for main: time 2016-02-05_17:52:40 on domain   2:    4.90897 elapsed seconds
Timing for main: time 2016-02-05_17:52:53 on domain   3:     .59078 elapsed seconds
Timing for main: time 2016-02-05_17:53:06 on domain   3:     .57967 elapsed seconds
Timing for main: time 2016-02-05_17:53:20 on domain   3:     .57935 elapsed seconds
Timing for main: time 2016-02-05_17:53:00 on domain   4:     .72469 elapsed seconds
Timing for main: time 2016-02-05_17:53:20 on domain   4:     .72267 elapsed seconds
Timing for main: time 2016-02-05_17:53:20 on domain   2:    4.86710 elapsed seconds
Timing for main: time 2016-02-05_17:53:33 on domain   3:     .59045 elapsed seconds
Timing for main: time 2016-02-05_17:53:46 on domain   3:     .58064 elapsed seconds
Timing for main: time 2016-02-05_17:54:00 on domain   3:     .57876 elapsed seconds
Timing for main: time 2016-02-05_17:53:40 on domain   4:     .72354 elapsed seconds
Timing for main: time 2016-02-05_17:54:00 on domain   4:     .72045 elapsed seconds
Timing for main: time 2016-02-05_17:54:00 on domain   2:    4.86538 elapsed seconds
Timing for main: time 2016-02-05_17:54:00 on domain   1:   15.55698 elapsed seconds
Timing for main: time 2016-02-05_17:54:13 on domain   3:     .59139 elapsed seconds
Timing for main: time 2016-02-05_17:54:26 on domain   3:     .57977 elapsed seconds
Timing for main: time 2016-02-05_17:54:40 on domain   3:     .57953 elapsed seconds
Timing for main: time 2016-02-05_17:54:20 on domain   4:     .72441 elapsed seconds
Timing for main: time 2016-02-05_17:54:40 on domain   4:     .72276 elapsed seconds
Timing for main: time 2016-02-05_17:54:40 on domain   2:    4.88121 elapsed seconds
Timing for main: time 2016-02-05_17:54:53 on domain   3:     .58952 elapsed seconds
Timing for main: time 2016-02-05_17:55:06 on domain   3:     .57985 elapsed seconds
Timing for main: time 2016-02-05_17:55:20 on domain   3:     .57871 elapsed seconds
Timing for main: time 2016-02-05_17:55:00 on domain   4:     .75836 elapsed seconds
Timing for main: time 2016-02-05_17:55:20 on domain   4:     .72272 elapsed seconds
Timing for main: time 2016-02-05_17:55:20 on domain   2:    4.90324 elapsed seconds
Timing for main: time 2016-02-05_17:55:33 on domain   3:     .58958 elapsed seconds
Timing for main: time 2016-02-05_17:55:46 on domain   3:     .57891 elapsed seconds
Timing for main: time 2016-02-05_17:56:00 on domain   3:     .57924 elapsed seconds
Timing for main: time 2016-02-05_17:55:40 on domain   4:     .72335 elapsed seconds
Timing for main: time 2016-02-05_17:56:00 on domain   4:     .72334 elapsed seconds
Timing for main: time 2016-02-05_17:56:00 on domain   2:    4.86519 elapsed seconds
Timing for main: time 2016-02-05_17:56:00 on domain   1:   15.62665 elapsed seconds
Timing for main: time 2016-02-05_17:56:13 on domain   3:     .58995 elapsed seconds
Timing for main: time 2016-02-05_17:56:26 on domain   3:     .57893 elapsed seconds
Timing for main: time 2016-02-05_17:56:40 on domain   3:     .57892 elapsed seconds
Timing for main: time 2016-02-05_17:56:20 on domain   4:     .72180 elapsed seconds
Timing for main: time 2016-02-05_17:56:40 on domain   4:     .72311 elapsed seconds
Timing for main: time 2016-02-05_17:56:40 on domain   2:    4.87904 elapsed seconds
Timing for main: time 2016-02-05_17:56:53 on domain   3:     .59022 elapsed seconds
Timing for main: time 2016-02-05_17:57:06 on domain   3:     .57873 elapsed seconds
Timing for main: time 2016-02-05_17:57:20 on domain   3:     .58180 elapsed seconds
Timing for main: time 2016-02-05_17:57:00 on domain   4:     .73235 elapsed seconds
Timing for main: time 2016-02-05_17:57:20 on domain   4:     .72254 elapsed seconds
Timing for main: time 2016-02-05_17:57:20 on domain   2:    4.91356 elapsed seconds
Timing for main: time 2016-02-05_17:57:33 on domain   3:     .59030 elapsed seconds
Timing for main: time 2016-02-05_17:57:46 on domain   3:     .60924 elapsed seconds
Timing for main: time 2016-02-05_17:58:00 on domain   3:     .57908 elapsed seconds
Timing for main: time 2016-02-05_17:57:40 on domain   4:     .72242 elapsed seconds
Timing for main: time 2016-02-05_17:58:00 on domain   4:     .72318 elapsed seconds
Timing for main: time 2016-02-05_17:58:00 on domain   2:    4.89573 elapsed seconds
Timing for main: time 2016-02-05_17:58:00 on domain   1:   15.57668 elapsed seconds
  photolysis_driver: called for domain  1
Timing for main: time 2016-02-05_17:58:13 on domain   3:     .59064 elapsed seconds
Timing for main: time 2016-02-05_17:58:26 on domain   3:     .58724 elapsed seconds
Timing for main: time 2016-02-05_17:58:40 on domain   3:     .57932 elapsed seconds
Timing for main: time 2016-02-05_17:58:20 on domain   4:     .72441 elapsed seconds
Timing for main: time 2016-02-05_17:58:40 on domain   4:     .72286 elapsed seconds
Timing for main: time 2016-02-05_17:58:40 on domain   2:    4.88783 elapsed seconds
Timing for main: time 2016-02-05_17:58:53 on domain   3:     .59078 elapsed seconds
Timing for main: time 2016-02-05_17:59:06 on domain   3:     .57899 elapsed seconds
Timing for main: time 2016-02-05_17:59:20 on domain   3:     .57962 elapsed seconds
Timing for main: time 2016-02-05_17:59:00 on domain   4:     .72287 elapsed seconds
Timing for main: time 2016-02-05_17:59:20 on domain   4:     .72550 elapsed seconds
Timing for main: time 2016-02-05_17:59:20 on domain   2:    4.86756 elapsed seconds
  photolysis_driver: called for domain  2
Timing for main: time 2016-02-05_17:59:33 on domain   3:     .58715 elapsed seconds
Timing for main: time 2016-02-05_17:59:46 on domain   3:     .57954 elapsed seconds
  photolysis_driver: called for domain  3
Timing for main: time 2016-02-05_18:00:00 on domain   3:    4.05092 elapsed seconds
Timing for Writing wrfout_d03_2016-02-05_18:00:00 for domain        3:    1.51335 elapsed seconds
Timing for main: time 2016-02-05_17:59:40 on domain   4:     .72376 elapsed seconds
  photolysis_driver: called for domain  4
Timing for main: time 2016-02-05_18:00:00 on domain   4:    4.72352 elapsed seconds
Timing for Writing wrfout_d04_2016-02-05_18:00:00 for domain        4:    1.69512 elapsed seconds
Timing for main: time 2016-02-05_18:00:00 on domain   2:   21.54204 elapsed seconds
Timing for Writing wrfout_d02_2016-02-05_18:00:00 for domain        2:    3.03306 elapsed seconds
Timing for main: time 2016-02-05_18:00:00 on domain   1:   37.53070 elapsed seconds
Timing for Writing wrfout_d01_2016-02-05_18:00:00 for domain        1:    2.70349 elapsed seconds
 d01 2016-02-05_18:00:00 wrf: SUCCESS COMPLETE WRF
