taskid: 0 hostname: p10a51.pbm.ihost.com
  Ntasks in X  10 , ntasks in Y  10
 Setting blank km_opt entries to domain #1 values.
  --> The km_opt entry in the namelist.input is now max_domains.
 Setting blank diff_opt entries to domain #1 values.
  --> The diff_opt entry in the namelist.input is now max_domains.
 --- WARNING: traj_opt is zero, but num_traj is not zero; setting num_traj to zero.
 --- NOTE: hypsometric_opt is 2, setting adjust_heights = F
 --- NOTE: sst_update is 0, setting io_form_auxinput4 = 0 and auxinput4_interval = 0 for all domains
 --- NOTE: sst_update is 0, setting io_form_auxinput4 = 0 and auxinput4_interval = 0 for all domains
 --- NOTE: sst_update is 0, setting io_form_auxinput4 = 0 and auxinput4_interval = 0 for all domains
 --- NOTE: sst_update is 0, setting io_form_auxinput4 = 0 and auxinput4_interval = 0 for all domains
 --- NOTE: grid_fdda is 0 for domain      1, setting gfdda interval and ending time to 0 for that domain.
 --- NOTE: both grid_sfdda and pxlsm_soil_nudge are 0 for domain      1, setting sgfdda interval and ending time to 0 for that domain.
 --- NOTE: obs_nudge_opt is 0 for domain      1, setting obs nudging interval and ending time to 0 for that domain.
 --- NOTE: grid_fdda is 0 for domain      2, setting gfdda interval and ending time to 0 for that domain.
 --- NOTE: both grid_sfdda and pxlsm_soil_nudge are 0 for domain      2, setting sgfdda interval and ending time to 0 for that domain.
 --- NOTE: obs_nudge_opt is 0 for domain      2, setting obs nudging interval and ending time to 0 for that domain.
 --- NOTE: grid_fdda is 0 for domain      3, setting gfdda interval and ending time to 0 for that domain.
 --- NOTE: both grid_sfdda and pxlsm_soil_nudge are 0 for domain      3, setting sgfdda interval and ending time to 0 for that domain.
 --- NOTE: obs_nudge_opt is 0 for domain      3, setting obs nudging interval and ending time to 0 for that domain.
 --- NOTE: grid_fdda is 0 for domain      4, setting gfdda interval and ending time to 0 for that domain.
 --- NOTE: both grid_sfdda and pxlsm_soil_nudge are 0 for domain      4, setting sgfdda interval and ending time to 0 for that domain.
 --- NOTE: obs_nudge_opt is 0 for domain      4, setting obs nudging interval and ending time to 0 for that domain.
 bl_pbl_physics /= 4, implies mfshconv must be 0, resetting
 --- NOTE: num_soil_layers has been set to      4
 WRF V3.6 MODEL
  *************************************
  Parent domain
  ids,ide,jds,jde  1 271 1 181
  ims,ime,jms,jme  -4 34 -4 25
  ips,ipe,jps,jpe  1 27 1 18
  *************************************
 DYNAMICS OPTION: Eulerian Mass Coordinate
    alloc_space_field: domain  1 ,  117661256  bytes allocated
   med_initialdata_input: calling input_input
Timing for processing wrfinput file (stream 0) for domain        1:    4.40716 elapsed seconds
 INPUT LandUse = "USGS"
  LANDUSE TYPE = "USGS" FOUND 33  CATEGORIES 2  SEASONS WATER CATEGORY =  16  SNOW CATEGORY =  24
 INITIALIZE THREE Noah LSM RELATED TABLES
  LANDUSE TYPE = USGS FOUND 27  CATEGORIES
  INPUT SOIL TEXTURE CLASSIFICATION = STAS
  SOIL TEXTURE CLASSIFICATION = STAS FOUND 19  CATEGORIES
 *********************************************************************
 *             PROGRAM:WRF/CHEM V3.6 MODEL
 *                                                                   *
 *    PLEASE REPORT ANY BUGS TO WRF/CHEM HELP at                     *
 *                                                                   *
 *              wrfchemhelp.gsd@noaa.gov                             *
 *                                                                   *
 *********************************************************************
 WARNING: dust option 1 currently works only with the GOCART aerosol option.
 WARNING: sea salt option 1 currently works only with the GOCART aerosol option.
  *************************************
  Nesting domain
  ids,ide,jds,jde  1 361 1 253
  ims,ime,jms,jme  -4 48 -4 36
  ips,ipe,jps,jpe  1 36 1 26
  INTERMEDIATE domain
  ids,ide,jds,jde  74 199 47 136
  ims,ime,jms,jme  69 97 42 67
  ips,ipe,jps,jpe  72 87 45 57
  *************************************
 d01 2016-02-05_12:00:00  alloc_space_field: domain  2 ,  213545948  bytes allocated
 d01 2016-02-05_12:00:00  alloc_space_field: domain  2 ,  9497384  bytes allocated
 d01 2016-02-05_12:00:00 *** Initializing nest domain # 2 from an input file. ***
 d01 2016-02-05_12:00:00 med_initialdata_input: calling input_input
Timing for processing wrfinput file (stream 0) for domain        2:    6.46280 elapsed seconds
 INPUT LandUse = "USGS"
  LANDUSE TYPE = "USGS" FOUND 33  CATEGORIES 2  SEASONS WATER CATEGORY =  16  SNOW CATEGORY =  24
 INITIALIZE THREE Noah LSM RELATED TABLES
  LANDUSE TYPE = USGS FOUND 27  CATEGORIES
  INPUT SOIL TEXTURE CLASSIFICATION = STAS
  SOIL TEXTURE CLASSIFICATION = STAS FOUND 19  CATEGORIES
 *********************************************************************
 *             PROGRAM:WRF/CHEM V3.6 MODEL
 *                                                                   *
 *    PLEASE REPORT ANY BUGS TO WRF/CHEM HELP at                     *
 *                                                                   *
 *              wrfchemhelp.gsd@noaa.gov                             *
 *                                                                   *
 *********************************************************************
 WARNING: dust option 1 currently works only with the GOCART aerosol option.
 WARNING: sea salt option 1 currently works only with the GOCART aerosol option.
 INPUT LandUse = "USGS"
  LANDUSE TYPE = "USGS" FOUND 33  CATEGORIES 2  SEASONS WATER CATEGORY =  16  SNOW CATEGORY =  24
 INITIALIZE THREE Noah LSM RELATED TABLES
  LANDUSE TYPE = USGS FOUND 27  CATEGORIES
  INPUT SOIL TEXTURE CLASSIFICATION = STAS
  SOIL TEXTURE CLASSIFICATION = STAS FOUND 19  CATEGORIES
 *********************************************************************
 *             PROGRAM:WRF/CHEM V3.6 MODEL
 *                                                                   *
 *    PLEASE REPORT ANY BUGS TO WRF/CHEM HELP at                     *
 *                                                                   *
 *              wrfchemhelp.gsd@noaa.gov                             *
 *                                                                   *
 *********************************************************************
 WARNING: dust option 1 currently works only with the GOCART aerosol option.
 WARNING: sea salt option 1 currently works only with the GOCART aerosol option.
 INPUT LandUse = "USGS"
  LANDUSE TYPE = "USGS" FOUND 33  CATEGORIES 2  SEASONS WATER CATEGORY =  16  SNOW CATEGORY =  24
 INITIALIZE THREE Noah LSM RELATED TABLES
  LANDUSE TYPE = USGS FOUND 27  CATEGORIES
  INPUT SOIL TEXTURE CLASSIFICATION = STAS
  SOIL TEXTURE CLASSIFICATION = STAS FOUND 19  CATEGORIES
 *********************************************************************
 *             PROGRAM:WRF/CHEM V3.6 MODEL
 *                                                                   *
 *    PLEASE REPORT ANY BUGS TO WRF/CHEM HELP at                     *
 *                                                                   *
 *              wrfchemhelp.gsd@noaa.gov                             *
 *                                                                   *
 *********************************************************************
 WARNING: dust option 1 currently works only with the GOCART aerosol option.
 WARNING: sea salt option 1 currently works only with the GOCART aerosol option.
Timing for Writing wrfout_d01_2016-02-05_12:00:00 for domain        1:    1.24965 elapsed seconds
  mediation_integrate: med_read_wrf_chem_emissions: Open file wrfchemi_12z_d01
  HOURLY EMISSIONS UPDATE TIME         .0        .0
 mediation_integrate: med_read_wrf_chem_emissions: Read emissions for time 2016-02-05_12:00:00
 **WARNING** Time in input file not being checked **WARNING**
Timing for processing lateral boundary for domain        1:    2.95279 elapsed seconds
  Tile Strategy is not specified. Assuming 1D-Y
 WRF TILE   1 IS      1 IE     27 JS      1 JE     18
 WRF NUMBER OF TILES =   1
  photolysis_driver: called for domain  1
  *************************************
  Nesting domain
  ids,ide,jds,jde  1 307 1 241
  ims,ime,jms,jme  -4 42 -4 36
  ips,ipe,jps,jpe  1 31 1 24
  INTERMEDIATE domain
  ids,ide,jds,jde  124 231 35 120
  ims,ime,jms,jme  119 145 30 54
  ips,ipe,jps,jpe  122 135 33 44
  *************************************
 d02 2016-02-05_12:00:00  alloc_space_field: domain  3 ,  189959300  bytes allocated
 d02 2016-02-05_12:00:00  alloc_space_field: domain  3 ,  8502300  bytes allocated
 d02 2016-02-05_12:00:00 *** Initializing nest domain # 3 from an input file. ***
 d02 2016-02-05_12:00:00 med_initialdata_input: calling input_input
Timing for processing wrfinput file (stream 0) for domain        3:    5.48971 elapsed seconds
 INPUT LandUse = "USGS"
  LANDUSE TYPE = "USGS" FOUND 33  CATEGORIES 2  SEASONS WATER CATEGORY =  16  SNOW CATEGORY =  24
 INITIALIZE THREE Noah LSM RELATED TABLES
  LANDUSE TYPE = USGS FOUND 27  CATEGORIES
  INPUT SOIL TEXTURE CLASSIFICATION = STAS
  SOIL TEXTURE CLASSIFICATION = STAS FOUND 19  CATEGORIES
 *********************************************************************
 *             PROGRAM:WRF/CHEM V3.6 MODEL
 *                                                                   *
 *    PLEASE REPORT ANY BUGS TO WRF/CHEM HELP at                     *
 *                                                                   *
 *              wrfchemhelp.gsd@noaa.gov                             *
 *                                                                   *
 *********************************************************************
 WARNING: dust option 1 currently works only with the GOCART aerosol option.
 WARNING: sea salt option 1 currently works only with the GOCART aerosol option.
 INPUT LandUse = "USGS"
  LANDUSE TYPE = "USGS" FOUND 33  CATEGORIES 2  SEASONS WATER CATEGORY =  16  SNOW CATEGORY =  24
 INITIALIZE THREE Noah LSM RELATED TABLES
  LANDUSE TYPE = USGS FOUND 27  CATEGORIES
  INPUT SOIL TEXTURE CLASSIFICATION = STAS
  SOIL TEXTURE CLASSIFICATION = STAS FOUND 19  CATEGORIES
 *********************************************************************
 *             PROGRAM:WRF/CHEM V3.6 MODEL
 *                                                                   *
 *    PLEASE REPORT ANY BUGS TO WRF/CHEM HELP at                     *
 *                                                                   *
 *              wrfchemhelp.gsd@noaa.gov                             *
 *                                                                   *
 *********************************************************************
 WARNING: dust option 1 currently works only with the GOCART aerosol option.
 WARNING: sea salt option 1 currently works only with the GOCART aerosol option.
 INPUT LandUse = "USGS"
  LANDUSE TYPE = "USGS" FOUND 33  CATEGORIES 2  SEASONS WATER CATEGORY =  16  SNOW CATEGORY =  24
 INITIALIZE THREE Noah LSM RELATED TABLES
  LANDUSE TYPE = USGS FOUND 27  CATEGORIES
  INPUT SOIL TEXTURE CLASSIFICATION = STAS
  SOIL TEXTURE CLASSIFICATION = STAS FOUND 19  CATEGORIES
 *********************************************************************
 *             PROGRAM:WRF/CHEM V3.6 MODEL
 *                                                                   *
 *    PLEASE REPORT ANY BUGS TO WRF/CHEM HELP at                     *
 *                                                                   *
 *              wrfchemhelp.gsd@noaa.gov                             *
 *                                                                   *
 *********************************************************************
 WARNING: dust option 1 currently works only with the GOCART aerosol option.
 WARNING: sea salt option 1 currently works only with the GOCART aerosol option.
  *************************************
  Nesting domain
  ids,ide,jds,jde  1 217 1 388
  ims,ime,jms,jme  -4 33 -4 51
  ips,ipe,jps,jpe  1 22 1 39
  INTERMEDIATE domain
  ids,ide,jds,jde  225 302 83 217
  ims,ime,jms,jme  220 243 78 107
  ips,ipe,jps,jpe  223 233 81 97
  *************************************
 d02 2016-02-05_12:00:00  alloc_space_field: domain  4 ,  209313404  bytes allocated
 d02 2016-02-05_12:00:00 *** Initializing nest domain # 4 from an input file. ***
 d02 2016-02-05_12:00:00 med_initialdata_input: calling input_input
Timing for processing wrfinput file (stream 0) for domain        4:    6.64880 elapsed seconds
 INPUT LandUse = "USGS"
  LANDUSE TYPE = "USGS" FOUND 33  CATEGORIES 2  SEASONS WATER CATEGORY =  16  SNOW CATEGORY =  24
 INITIALIZE THREE Noah LSM RELATED TABLES
  LANDUSE TYPE = USGS FOUND 27  CATEGORIES
  INPUT SOIL TEXTURE CLASSIFICATION = STAS
  SOIL TEXTURE CLASSIFICATION = STAS FOUND 19  CATEGORIES
 *********************************************************************
 *             PROGRAM:WRF/CHEM V3.6 MODEL
 *                                                                   *
 *    PLEASE REPORT ANY BUGS TO WRF/CHEM HELP at                     *
 *                                                                   *
 *              wrfchemhelp.gsd@noaa.gov                             *
 *                                                                   *
 *********************************************************************
 WARNING: dust option 1 currently works only with the GOCART aerosol option.
 WARNING: sea salt option 1 currently works only with the GOCART aerosol option.
 INPUT LandUse = "USGS"
  LANDUSE TYPE = "USGS" FOUND 33  CATEGORIES 2  SEASONS WATER CATEGORY =  16  SNOW CATEGORY =  24
 INITIALIZE THREE Noah LSM RELATED TABLES
  LANDUSE TYPE = USGS FOUND 27  CATEGORIES
  INPUT SOIL TEXTURE CLASSIFICATION = STAS
  SOIL TEXTURE CLASSIFICATION = STAS FOUND 19  CATEGORIES
 *********************************************************************
 *             PROGRAM:WRF/CHEM V3.6 MODEL
 *                                                                   *
 *    PLEASE REPORT ANY BUGS TO WRF/CHEM HELP at                     *
 *                                                                   *
 *              wrfchemhelp.gsd@noaa.gov                             *
 *                                                                   *
 *********************************************************************
 WARNING: dust option 1 currently works only with the GOCART aerosol option.
 WARNING: sea salt option 1 currently works only with the GOCART aerosol option.
 INPUT LandUse = "USGS"
  LANDUSE TYPE = "USGS" FOUND 33  CATEGORIES 2  SEASONS WATER CATEGORY =  16  SNOW CATEGORY =  24
 INITIALIZE THREE Noah LSM RELATED TABLES
  LANDUSE TYPE = USGS FOUND 27  CATEGORIES
  INPUT SOIL TEXTURE CLASSIFICATION = STAS
  SOIL TEXTURE CLASSIFICATION = STAS FOUND 19  CATEGORIES
 *********************************************************************
 *             PROGRAM:WRF/CHEM V3.6 MODEL
 *                                                                   *
 *    PLEASE REPORT ANY BUGS TO WRF/CHEM HELP at                     *
 *                                                                   *
 *              wrfchemhelp.gsd@noaa.gov                             *
 *                                                                   *
 *********************************************************************
 WARNING: dust option 1 currently works only with the GOCART aerosol option.
 WARNING: sea salt option 1 currently works only with the GOCART aerosol option.
Timing for Writing wrfout_d02_2016-02-05_12:00:00 for domain        2:    1.92440 elapsed seconds
  mediation_integrate: med_read_wrf_chem_emissions: Open file wrfchemi_12z_d02
  HOURLY EMISSIONS UPDATE TIME         .0        .0
 mediation_integrate: med_read_wrf_chem_emissions: Read emissions for time 2016-02-05_12:00:00
 **WARNING** Time in input file not being checked **WARNING**
  Tile Strategy is not specified. Assuming 1D-Y
 WRF TILE   1 IS      1 IE     36 JS      1 JE     26
 WRF NUMBER OF TILES =   1
  photolysis_driver: called for domain  2
Timing for Writing wrfout_d03_2016-02-05_12:00:00 for domain        3:    1.65555 elapsed seconds
  mediation_integrate: med_read_wrf_chem_emissions: Open file wrfchemi_12z_d03
  HOURLY EMISSIONS UPDATE TIME         .0        .0
 mediation_integrate: med_read_wrf_chem_emissions: Read emissions for time 2016-02-05_12:00:00
 **WARNING** Time in input file not being checked **WARNING**
  Tile Strategy is not specified. Assuming 1D-Y
 WRF TILE   1 IS      1 IE     31 JS      1 JE     24
 WRF NUMBER OF TILES =   1
  photolysis_driver: called for domain  3
Timing for main: time 2016-02-05_12:00:13 on domain   3:    6.31308 elapsed seconds
Timing for main: time 2016-02-05_12:00:26 on domain   3:     .23401 elapsed seconds
Timing for main: time 2016-02-05_12:00:40 on domain   3:     .27511 elapsed seconds
Timing for Writing wrfout_d04_2016-02-05_12:00:00 for domain        4:    1.82851 elapsed seconds
  mediation_integrate: med_read_wrf_chem_emissions: Open file wrfchemi_12z_d04
  HOURLY EMISSIONS UPDATE TIME         .0        .0
 mediation_integrate: med_read_wrf_chem_emissions: Read emissions for time 2016-02-05_12:00:00
 **WARNING** Time in input file not being checked **WARNING**
  Tile Strategy is not specified. Assuming 1D-Y
 WRF TILE   1 IS      1 IE     22 JS      1 JE     39
 WRF NUMBER OF TILES =   1
  photolysis_driver: called for domain  4
Timing for main: time 2016-02-05_12:00:20 on domain   4:    5.97558 elapsed seconds
Timing for main: time 2016-02-05_12:00:40 on domain   4:     .32969 elapsed seconds
Timing for main: time 2016-02-05_12:00:40 on domain   2:   36.68690 elapsed seconds
Timing for main: time 2016-02-05_12:00:53 on domain   3:     .29941 elapsed seconds
Timing for main: time 2016-02-05_12:01:06 on domain   3:     .27301 elapsed seconds
Timing for main: time 2016-02-05_12:01:20 on domain   3:     .27333 elapsed seconds
Timing for main: time 2016-02-05_12:01:00 on domain   4:     .34355 elapsed seconds
Timing for main: time 2016-02-05_12:01:20 on domain   4:     .32321 elapsed seconds
Timing for main: time 2016-02-05_12:01:20 on domain   2:    2.39279 elapsed seconds
Timing for main: time 2016-02-05_12:01:33 on domain   3:     .33445 elapsed seconds
Timing for main: time 2016-02-05_12:01:46 on domain   3:     .27314 elapsed seconds
Timing for main: time 2016-02-05_12:02:00 on domain   3:     .27404 elapsed seconds
Timing for main: time 2016-02-05_12:01:40 on domain   4:     .34534 elapsed seconds
Timing for main: time 2016-02-05_12:02:00 on domain   4:     .32626 elapsed seconds
Timing for main: time 2016-02-05_12:02:00 on domain   2:    2.48613 elapsed seconds
Timing for main: time 2016-02-05_12:02:00 on domain   1:   58.95127 elapsed seconds
Timing for main: time 2016-02-05_12:02:13 on domain   3:     .28803 elapsed seconds
Timing for main: time 2016-02-05_12:02:26 on domain   3:     .27320 elapsed seconds
Timing for main: time 2016-02-05_12:02:40 on domain   3:     .27474 elapsed seconds
Timing for main: time 2016-02-05_12:02:20 on domain   4:     .34358 elapsed seconds
Timing for main: time 2016-02-05_12:02:40 on domain   4:     .32353 elapsed seconds
Timing for main: time 2016-02-05_12:02:40 on domain   2:    2.45510 elapsed seconds
Timing for main: time 2016-02-05_12:02:53 on domain   3:     .28611 elapsed seconds
Timing for main: time 2016-02-05_12:03:06 on domain   3:     .27797 elapsed seconds
Timing for main: time 2016-02-05_12:03:20 on domain   3:     .27337 elapsed seconds
Timing for main: time 2016-02-05_12:03:00 on domain   4:     .34360 elapsed seconds
Timing for main: time 2016-02-05_12:03:20 on domain   4:     .32457 elapsed seconds
Timing for main: time 2016-02-05_12:03:20 on domain   2:    2.43915 elapsed seconds
Timing for main: time 2016-02-05_12:03:33 on domain   3:     .28850 elapsed seconds
Timing for main: time 2016-02-05_12:03:46 on domain   3:     .27251 elapsed seconds
Timing for main: time 2016-02-05_12:04:00 on domain   3:     .27334 elapsed seconds
Timing for main: time 2016-02-05_12:03:40 on domain   4:     .34354 elapsed seconds
Timing for main: time 2016-02-05_12:04:00 on domain   4:     .32540 elapsed seconds
Timing for main: time 2016-02-05_12:04:00 on domain   2:    2.43538 elapsed seconds
Timing for main: time 2016-02-05_12:04:00 on domain   1:    7.77045 elapsed seconds
Timing for main: time 2016-02-05_12:04:13 on domain   3:     .28787 elapsed seconds
Timing for main: time 2016-02-05_12:04:26 on domain   3:     .27374 elapsed seconds
Timing for main: time 2016-02-05_12:04:40 on domain   3:     .27573 elapsed seconds
Timing for main: time 2016-02-05_12:04:20 on domain   4:     .34581 elapsed seconds
Timing for main: time 2016-02-05_12:04:40 on domain   4:     .32392 elapsed seconds
Timing for main: time 2016-02-05_12:04:40 on domain   2:    2.45962 elapsed seconds
Timing for main: time 2016-02-05_12:04:53 on domain   3:     .28418 elapsed seconds
Timing for main: time 2016-02-05_12:05:06 on domain   3:     .28587 elapsed seconds
Timing for main: time 2016-02-05_12:05:20 on domain   3:     .27200 elapsed seconds
Timing for main: time 2016-02-05_12:05:00 on domain   4:     .35792 elapsed seconds
Timing for main: time 2016-02-05_12:05:20 on domain   4:     .32349 elapsed seconds
Timing for main: time 2016-02-05_12:05:20 on domain   2:    2.47609 elapsed seconds
Timing for main: time 2016-02-05_12:05:33 on domain   3:     .28718 elapsed seconds
Timing for main: time 2016-02-05_12:05:46 on domain   3:     .27307 elapsed seconds
Timing for main: time 2016-02-05_12:06:00 on domain   3:     .27294 elapsed seconds
Timing for main: time 2016-02-05_12:05:40 on domain   4:     .34410 elapsed seconds
Timing for main: time 2016-02-05_12:06:00 on domain   4:     .32415 elapsed seconds
Timing for main: time 2016-02-05_12:06:00 on domain   2:    2.43940 elapsed seconds
Timing for main: time 2016-02-05_12:06:00 on domain   1:    7.86290 elapsed seconds
Timing for main: time 2016-02-05_12:06:13 on domain   3:     .28781 elapsed seconds
Timing for main: time 2016-02-05_12:06:26 on domain   3:     .27298 elapsed seconds
Timing for main: time 2016-02-05_12:06:40 on domain   3:     .27539 elapsed seconds
Timing for main: time 2016-02-05_12:06:20 on domain   4:     .34352 elapsed seconds
Timing for main: time 2016-02-05_12:06:40 on domain   4:     .39498 elapsed seconds
Timing for main: time 2016-02-05_12:06:40 on domain   2:    2.52774 elapsed seconds
Timing for main: time 2016-02-05_12:06:53 on domain   3:     .28924 elapsed seconds
Timing for main: time 2016-02-05_12:07:06 on domain   3:     .27328 elapsed seconds
Timing for main: time 2016-02-05_12:07:20 on domain   3:     .27310 elapsed seconds
Timing for main: time 2016-02-05_12:07:00 on domain   4:     .34397 elapsed seconds
Timing for main: time 2016-02-05_12:07:20 on domain   4:     .32462 elapsed seconds
Timing for main: time 2016-02-05_12:07:20 on domain   2:    2.43861 elapsed seconds
Timing for main: time 2016-02-05_12:07:33 on domain   3:     .29001 elapsed seconds
Timing for main: time 2016-02-05_12:07:46 on domain   3:     .27324 elapsed seconds
Timing for main: time 2016-02-05_12:08:00 on domain   3:     .27325 elapsed seconds
Timing for main: time 2016-02-05_12:07:40 on domain   4:     .34475 elapsed seconds
Timing for main: time 2016-02-05_12:08:00 on domain   4:     .32549 elapsed seconds
Timing for main: time 2016-02-05_12:08:00 on domain   2:    2.44035 elapsed seconds
Timing for main: time 2016-02-05_12:08:00 on domain   1:    7.88570 elapsed seconds
Timing for main: time 2016-02-05_12:08:13 on domain   3:     .28866 elapsed seconds
Timing for main: time 2016-02-05_12:08:26 on domain   3:     .27281 elapsed seconds
Timing for main: time 2016-02-05_12:08:40 on domain   3:     .27273 elapsed seconds
Timing for main: time 2016-02-05_12:08:20 on domain   4:     .34635 elapsed seconds
Timing for main: time 2016-02-05_12:08:40 on domain   4:     .32689 elapsed seconds
Timing for main: time 2016-02-05_12:08:40 on domain   2:    2.46081 elapsed seconds
Timing for main: time 2016-02-05_12:08:53 on domain   3:     .28778 elapsed seconds
Timing for main: time 2016-02-05_12:09:06 on domain   3:     .27422 elapsed seconds
Timing for main: time 2016-02-05_12:09:20 on domain   3:     .27319 elapsed seconds
Timing for main: time 2016-02-05_12:09:00 on domain   4:     .34434 elapsed seconds
Timing for main: time 2016-02-05_12:09:20 on domain   4:     .32519 elapsed seconds
Timing for main: time 2016-02-05_12:09:20 on domain   2:    2.43872 elapsed seconds
Timing for main: time 2016-02-05_12:09:33 on domain   3:     .28752 elapsed seconds
Timing for main: time 2016-02-05_12:09:46 on domain   3:     .27305 elapsed seconds
Timing for main: time 2016-02-05_12:10:00 on domain   3:     .27478 elapsed seconds
Timing for main: time 2016-02-05_12:09:40 on domain   4:     .34491 elapsed seconds
Timing for main: time 2016-02-05_12:10:00 on domain   4:     .33968 elapsed seconds
Timing for main: time 2016-02-05_12:10:00 on domain   2:    2.45275 elapsed seconds
Timing for main: time 2016-02-05_12:10:00 on domain   1:    7.82790 elapsed seconds
Timing for main: time 2016-02-05_12:10:13 on domain   3:     .29988 elapsed seconds
Timing for main: time 2016-02-05_12:10:26 on domain   3:     .27314 elapsed seconds
Timing for main: time 2016-02-05_12:10:40 on domain   3:     .27312 elapsed seconds
Timing for main: time 2016-02-05_12:10:20 on domain   4:     .34485 elapsed seconds
Timing for main: time 2016-02-05_12:10:40 on domain   4:     .32485 elapsed seconds
Timing for main: time 2016-02-05_12:10:40 on domain   2:    2.48350 elapsed seconds
Timing for main: time 2016-02-05_12:10:53 on domain   3:     .28772 elapsed seconds
Timing for main: time 2016-02-05_12:11:06 on domain   3:     .27280 elapsed seconds
Timing for main: time 2016-02-05_12:11:20 on domain   3:     .27613 elapsed seconds
Timing for main: time 2016-02-05_12:11:00 on domain   4:     .34450 elapsed seconds
Timing for main: time 2016-02-05_12:11:20 on domain   4:     .32789 elapsed seconds
Timing for main: time 2016-02-05_12:11:20 on domain   2:    2.44311 elapsed seconds
Timing for main: time 2016-02-05_12:11:33 on domain   3:     .28871 elapsed seconds
Timing for main: time 2016-02-05_12:11:46 on domain   3:     .27296 elapsed seconds
Timing for main: time 2016-02-05_12:12:00 on domain   3:     .27288 elapsed seconds
Timing for main: time 2016-02-05_12:11:40 on domain   4:     .34107 elapsed seconds
Timing for main: time 2016-02-05_12:12:00 on domain   4:     .32470 elapsed seconds
Timing for main: time 2016-02-05_12:12:00 on domain   2:    2.43967 elapsed seconds
Timing for main: time 2016-02-05_12:12:00 on domain   1:    7.85350 elapsed seconds
Timing for main: time 2016-02-05_12:12:13 on domain   3:     .28761 elapsed seconds
Timing for main: time 2016-02-05_12:12:26 on domain   3:     .27388 elapsed seconds
Timing for main: time 2016-02-05_12:12:40 on domain   3:     .27245 elapsed seconds
Timing for main: time 2016-02-05_12:12:20 on domain   4:     .34463 elapsed seconds
Timing for main: time 2016-02-05_12:12:40 on domain   4:     .32513 elapsed seconds
Timing for main: time 2016-02-05_12:12:40 on domain   2:    2.45860 elapsed seconds
Timing for main: time 2016-02-05_12:12:53 on domain   3:     .28790 elapsed seconds
Timing for main: time 2016-02-05_12:13:06 on domain   3:     .27338 elapsed seconds
Timing for main: time 2016-02-05_12:13:20 on domain   3:     .27670 elapsed seconds
Timing for main: time 2016-02-05_12:13:00 on domain   4:     .34492 elapsed seconds
Timing for main: time 2016-02-05_12:13:20 on domain   4:     .32552 elapsed seconds
Timing for main: time 2016-02-05_12:13:20 on domain   2:    2.44236 elapsed seconds
Timing for main: time 2016-02-05_12:13:33 on domain   3:     .28749 elapsed seconds
Timing for main: time 2016-02-05_12:13:46 on domain   3:     .27678 elapsed seconds
Timing for main: time 2016-02-05_12:14:00 on domain   3:     .27433 elapsed seconds
Timing for main: time 2016-02-05_12:13:40 on domain   4:     .34562 elapsed seconds
Timing for main: time 2016-02-05_12:14:00 on domain   4:     .32511 elapsed seconds
Timing for main: time 2016-02-05_12:14:00 on domain   2:    2.44325 elapsed seconds
Timing for main: time 2016-02-05_12:14:00 on domain   1:    7.81976 elapsed seconds
Timing for main: time 2016-02-05_12:14:13 on domain   3:     .28792 elapsed seconds
Timing for main: time 2016-02-05_12:14:26 on domain   3:     .27292 elapsed seconds
Timing for main: time 2016-02-05_12:14:40 on domain   3:     .27323 elapsed seconds
Timing for main: time 2016-02-05_12:14:20 on domain   4:     .34662 elapsed seconds
Timing for main: time 2016-02-05_12:14:40 on domain   4:     .32582 elapsed seconds
Timing for main: time 2016-02-05_12:14:40 on domain   2:    2.45981 elapsed seconds
Timing for main: time 2016-02-05_12:14:53 on domain   3:     .28718 elapsed seconds
Timing for main: time 2016-02-05_12:15:06 on domain   3:     .27399 elapsed seconds
Timing for main: time 2016-02-05_12:15:20 on domain   3:     .28542 elapsed seconds
Timing for main: time 2016-02-05_12:15:00 on domain   4:     .36171 elapsed seconds
Timing for main: time 2016-02-05_12:15:20 on domain   4:     .32530 elapsed seconds
Timing for main: time 2016-02-05_12:15:20 on domain   2:    2.46734 elapsed seconds
Timing for main: time 2016-02-05_12:15:33 on domain   3:     .28980 elapsed seconds
Timing for main: time 2016-02-05_12:15:46 on domain   3:     .27304 elapsed seconds
Timing for main: time 2016-02-05_12:16:00 on domain   3:     .27376 elapsed seconds
Timing for main: time 2016-02-05_12:15:40 on domain   4:     .34538 elapsed seconds
Timing for main: time 2016-02-05_12:16:00 on domain   4:     .32496 elapsed seconds
Timing for main: time 2016-02-05_12:16:00 on domain   2:    2.45722 elapsed seconds
Timing for main: time 2016-02-05_12:16:00 on domain   1:    7.86147 elapsed seconds
Timing for main: time 2016-02-05_12:16:13 on domain   3:     .38552 elapsed seconds
Timing for main: time 2016-02-05_12:16:26 on domain   3:     .27137 elapsed seconds
Timing for main: time 2016-02-05_12:16:40 on domain   3:     .27270 elapsed seconds
Timing for main: time 2016-02-05_12:16:20 on domain   4:     .39862 elapsed seconds
Timing for main: time 2016-02-05_12:16:40 on domain   4:     .32568 elapsed seconds
Timing for main: time 2016-02-05_12:16:40 on domain   2:    2.60869 elapsed seconds
Timing for main: time 2016-02-05_12:16:53 on domain   3:     .28789 elapsed seconds
Timing for main: time 2016-02-05_12:17:06 on domain   3:     .27309 elapsed seconds
Timing for main: time 2016-02-05_12:17:20 on domain   3:     .27259 elapsed seconds
Timing for main: time 2016-02-05_12:17:00 on domain   4:     .34825 elapsed seconds
Timing for main: time 2016-02-05_12:17:20 on domain   4:     .32594 elapsed seconds
Timing for main: time 2016-02-05_12:17:20 on domain   2:    2.44233 elapsed seconds
Timing for main: time 2016-02-05_12:17:33 on domain   3:     .28781 elapsed seconds
Timing for main: time 2016-02-05_12:17:46 on domain   3:     .27268 elapsed seconds
Timing for main: time 2016-02-05_12:18:00 on domain   3:     .27365 elapsed seconds
Timing for main: time 2016-02-05_12:17:40 on domain   4:     .34473 elapsed seconds
Timing for main: time 2016-02-05_12:18:00 on domain   4:     .32520 elapsed seconds
Timing for main: time 2016-02-05_12:18:00 on domain   2:    2.43777 elapsed seconds
Timing for main: time 2016-02-05_12:18:00 on domain   1:    7.97615 elapsed seconds
Timing for main: time 2016-02-05_12:18:13 on domain   3:     .28807 elapsed seconds
Timing for main: time 2016-02-05_12:18:26 on domain   3:     .27288 elapsed seconds
Timing for main: time 2016-02-05_12:18:40 on domain   3:     .27308 elapsed seconds
Timing for main: time 2016-02-05_12:18:20 on domain   4:     .34516 elapsed seconds
Timing for main: time 2016-02-05_12:18:40 on domain   4:     .32561 elapsed seconds
Timing for main: time 2016-02-05_12:18:40 on domain   2:    2.45759 elapsed seconds
Timing for main: time 2016-02-05_12:18:53 on domain   3:     .28758 elapsed seconds
Timing for main: time 2016-02-05_12:19:06 on domain   3:     .27314 elapsed seconds
Timing for main: time 2016-02-05_12:19:20 on domain   3:     .27323 elapsed seconds
Timing for main: time 2016-02-05_12:19:00 on domain   4:     .34557 elapsed seconds
Timing for main: time 2016-02-05_12:19:20 on domain   4:     .32599 elapsed seconds
Timing for main: time 2016-02-05_12:19:20 on domain   2:    2.44030 elapsed seconds
Timing for main: time 2016-02-05_12:19:33 on domain   3:     .28771 elapsed seconds
Timing for main: time 2016-02-05_12:19:46 on domain   3:     .27318 elapsed seconds
Timing for main: time 2016-02-05_12:20:00 on domain   3:     .27402 elapsed seconds
Timing for main: time 2016-02-05_12:19:40 on domain   4:     .34688 elapsed seconds
Timing for main: time 2016-02-05_12:20:00 on domain   4:     .34026 elapsed seconds
Timing for main: time 2016-02-05_12:20:00 on domain   2:    2.45725 elapsed seconds
Timing for main: time 2016-02-05_12:20:00 on domain   1:    7.83130 elapsed seconds
Timing for main: time 2016-02-05_12:20:13 on domain   3:     .28754 elapsed seconds
Timing for main: time 2016-02-05_12:20:26 on domain   3:     .28567 elapsed seconds
Timing for main: time 2016-02-05_12:20:40 on domain   3:     .27631 elapsed seconds
Timing for main: time 2016-02-05_12:20:20 on domain   4:     .34574 elapsed seconds
Timing for main: time 2016-02-05_12:20:40 on domain   4:     .32912 elapsed seconds
Timing for main: time 2016-02-05_12:20:40 on domain   2:    2.47744 elapsed seconds
Timing for main: time 2016-02-05_12:20:53 on domain   3:     .28726 elapsed seconds
Timing for main: time 2016-02-05_12:21:06 on domain   3:     .27281 elapsed seconds
Timing for main: time 2016-02-05_12:21:20 on domain   3:     .27272 elapsed seconds
Timing for main: time 2016-02-05_12:21:00 on domain   4:     .34747 elapsed seconds
Timing for main: time 2016-02-05_12:21:20 on domain   4:     .32594 elapsed seconds
Timing for main: time 2016-02-05_12:21:20 on domain   2:    2.45592 elapsed seconds
Timing for main: time 2016-02-05_12:21:33 on domain   3:     .28813 elapsed seconds
Timing for main: time 2016-02-05_12:21:46 on domain   3:     .27218 elapsed seconds
Timing for main: time 2016-02-05_12:22:00 on domain   3:     .27156 elapsed seconds
Timing for main: time 2016-02-05_12:21:40 on domain   4:     .34555 elapsed seconds
Timing for main: time 2016-02-05_12:22:00 on domain   4:     .32597 elapsed seconds
Timing for main: time 2016-02-05_12:22:00 on domain   2:    2.44300 elapsed seconds
Timing for main: time 2016-02-05_12:22:00 on domain   1:    7.85194 elapsed seconds
Timing for main: time 2016-02-05_12:22:13 on domain   3:     .32982 elapsed seconds
Timing for main: time 2016-02-05_12:22:26 on domain   3:     .30365 elapsed seconds
Timing for main: time 2016-02-05_12:22:40 on domain   3:     .27277 elapsed seconds
Timing for main: time 2016-02-05_12:22:20 on domain   4:     .39374 elapsed seconds
Timing for main: time 2016-02-05_12:22:40 on domain   4:     .32371 elapsed seconds
Timing for main: time 2016-02-05_12:22:40 on domain   2:    2.57722 elapsed seconds
Timing for main: time 2016-02-05_12:22:53 on domain   3:     .28706 elapsed seconds
Timing for main: time 2016-02-05_12:23:06 on domain   3:     .27310 elapsed seconds
Timing for main: time 2016-02-05_12:23:20 on domain   3:     .27223 elapsed seconds
Timing for main: time 2016-02-05_12:23:00 on domain   4:     .34533 elapsed seconds
Timing for main: time 2016-02-05_12:23:20 on domain   4:     .32723 elapsed seconds
Timing for main: time 2016-02-05_12:23:20 on domain   2:    2.44727 elapsed seconds
Timing for main: time 2016-02-05_12:23:33 on domain   3:     .28713 elapsed seconds
Timing for main: time 2016-02-05_12:23:46 on domain   3:     .27268 elapsed seconds
Timing for main: time 2016-02-05_12:24:00 on domain   3:     .27268 elapsed seconds
Timing for main: time 2016-02-05_12:23:40 on domain   4:     .34698 elapsed seconds
Timing for main: time 2016-02-05_12:24:00 on domain   4:     .32595 elapsed seconds
Timing for main: time 2016-02-05_12:24:00 on domain   2:    2.44054 elapsed seconds
Timing for main: time 2016-02-05_12:24:00 on domain   1:    7.95143 elapsed seconds
Timing for main: time 2016-02-05_12:24:13 on domain   3:     .28705 elapsed seconds
Timing for main: time 2016-02-05_12:24:26 on domain   3:     .27269 elapsed seconds
Timing for main: time 2016-02-05_12:24:40 on domain   3:     .27262 elapsed seconds
Timing for main: time 2016-02-05_12:24:20 on domain   4:     .34596 elapsed seconds
Timing for main: time 2016-02-05_12:24:40 on domain   4:     .32535 elapsed seconds
Timing for main: time 2016-02-05_12:24:40 on domain   2:    2.45827 elapsed seconds
Timing for main: time 2016-02-05_12:24:53 on domain   3:     .28711 elapsed seconds
Timing for main: time 2016-02-05_12:25:06 on domain   3:     .27285 elapsed seconds
Timing for main: time 2016-02-05_12:25:20 on domain   3:     .27449 elapsed seconds
Timing for main: time 2016-02-05_12:25:00 on domain   4:     .36092 elapsed seconds
Timing for main: time 2016-02-05_12:25:20 on domain   4:     .32592 elapsed seconds
Timing for main: time 2016-02-05_12:25:20 on domain   2:    2.45526 elapsed seconds
Timing for main: time 2016-02-05_12:25:33 on domain   3:     .29957 elapsed seconds
Timing for main: time 2016-02-05_12:25:46 on domain   3:     .27377 elapsed seconds
Timing for main: time 2016-02-05_12:26:00 on domain   3:     .27408 elapsed seconds
Timing for main: time 2016-02-05_12:25:40 on domain   4:     .34594 elapsed seconds
Timing for main: time 2016-02-05_12:26:00 on domain   4:     .32640 elapsed seconds
Timing for main: time 2016-02-05_12:26:00 on domain   2:    2.45477 elapsed seconds
Timing for main: time 2016-02-05_12:26:00 on domain   1:    7.84383 elapsed seconds
Timing for main: time 2016-02-05_12:26:13 on domain   3:     .28945 elapsed seconds
Timing for main: time 2016-02-05_12:26:26 on domain   3:     .27302 elapsed seconds
Timing for main: time 2016-02-05_12:26:40 on domain   3:     .27281 elapsed seconds
Timing for main: time 2016-02-05_12:26:20 on domain   4:     .34542 elapsed seconds
Timing for main: time 2016-02-05_12:26:40 on domain   4:     .32540 elapsed seconds
Timing for main: time 2016-02-05_12:26:40 on domain   2:    2.47581 elapsed seconds
Timing for main: time 2016-02-05_12:26:53 on domain   3:     .28815 elapsed seconds
Timing for main: time 2016-02-05_12:27:06 on domain   3:     .27258 elapsed seconds
Timing for main: time 2016-02-05_12:27:20 on domain   3:     .27220 elapsed seconds
Timing for main: time 2016-02-05_12:27:00 on domain   4:     .34503 elapsed seconds
Timing for main: time 2016-02-05_12:27:20 on domain   4:     .32880 elapsed seconds
Timing for main: time 2016-02-05_12:27:20 on domain   2:    2.44690 elapsed seconds
Timing for main: time 2016-02-05_12:27:33 on domain   3:     .28688 elapsed seconds
Timing for main: time 2016-02-05_12:27:46 on domain   3:     .27297 elapsed seconds
Timing for main: time 2016-02-05_12:28:00 on domain   3:     .27196 elapsed seconds
Timing for main: time 2016-02-05_12:27:40 on domain   4:     .34554 elapsed seconds
Timing for main: time 2016-02-05_12:28:00 on domain   4:     .32686 elapsed seconds
Timing for main: time 2016-02-05_12:28:00 on domain   2:    2.44291 elapsed seconds
Timing for main: time 2016-02-05_12:28:00 on domain   1:    7.84125 elapsed seconds
  photolysis_driver: called for domain  1
Timing for main: time 2016-02-05_12:28:13 on domain   3:     .28690 elapsed seconds
Timing for main: time 2016-02-05_12:28:26 on domain   3:     .27350 elapsed seconds
Timing for main: time 2016-02-05_12:28:40 on domain   3:     .27266 elapsed seconds
Timing for main: time 2016-02-05_12:28:20 on domain   4:     .34817 elapsed seconds
Timing for main: time 2016-02-05_12:28:40 on domain   4:     .32630 elapsed seconds
Timing for main: time 2016-02-05_12:28:40 on domain   2:    2.46299 elapsed seconds
Timing for main: time 2016-02-05_12:28:53 on domain   3:     .28734 elapsed seconds
Timing for main: time 2016-02-05_12:29:06 on domain   3:     .27543 elapsed seconds
Timing for main: time 2016-02-05_12:29:20 on domain   3:     .27173 elapsed seconds
Timing for main: time 2016-02-05_12:29:00 on domain   4:     .34501 elapsed seconds
Timing for main: time 2016-02-05_12:29:20 on domain   4:     .32623 elapsed seconds
Timing for main: time 2016-02-05_12:29:20 on domain   2:    2.44584 elapsed seconds
  photolysis_driver: called for domain  2
Timing for main: time 2016-02-05_12:29:33 on domain   3:     .28876 elapsed seconds
Timing for main: time 2016-02-05_12:29:46 on domain   3:     .27189 elapsed seconds
  photolysis_driver: called for domain  3
Timing for main: time 2016-02-05_12:30:00 on domain   3:    1.65529 elapsed seconds
Timing for main: time 2016-02-05_12:29:40 on domain   4:     .34652 elapsed seconds
  photolysis_driver: called for domain  4
Timing for main: time 2016-02-05_12:30:00 on domain   4:    1.92142 elapsed seconds
Timing for main: time 2016-02-05_12:30:00 on domain   2:    7.14323 elapsed seconds
Timing for main: time 2016-02-05_12:30:00 on domain   1:   13.57167 elapsed seconds
Timing for main: time 2016-02-05_12:30:13 on domain   3:     .55994 elapsed seconds
Timing for main: time 2016-02-05_12:30:26 on domain   3:     .27163 elapsed seconds
Timing for main: time 2016-02-05_12:30:40 on domain   3:     .28311 elapsed seconds
Timing for main: time 2016-02-05_12:30:20 on domain   4:     .66133 elapsed seconds
Timing for main: time 2016-02-05_12:30:40 on domain   4:     .32383 elapsed seconds
Timing for main: time 2016-02-05_12:30:40 on domain   2:    3.39629 elapsed seconds
Timing for main: time 2016-02-05_12:30:53 on domain   3:     .34742 elapsed seconds
Timing for main: time 2016-02-05_12:31:06 on domain   3:     .27081 elapsed seconds
Timing for main: time 2016-02-05_12:31:20 on domain   3:     .27119 elapsed seconds
Timing for main: time 2016-02-05_12:31:00 on domain   4:     .34332 elapsed seconds
Timing for main: time 2016-02-05_12:31:20 on domain   4:     .32671 elapsed seconds
Timing for main: time 2016-02-05_12:31:20 on domain   2:    2.49381 elapsed seconds
Timing for main: time 2016-02-05_12:31:33 on domain   3:     .40189 elapsed seconds
Timing for main: time 2016-02-05_12:31:46 on domain   3:     .26939 elapsed seconds
Timing for main: time 2016-02-05_12:32:00 on domain   3:     .27399 elapsed seconds
Timing for main: time 2016-02-05_12:31:40 on domain   4:     .34349 elapsed seconds
Timing for main: time 2016-02-05_12:32:00 on domain   4:     .32387 elapsed seconds
Timing for main: time 2016-02-05_12:32:00 on domain   2:    2.62986 elapsed seconds
Timing for main: time 2016-02-05_12:32:00 on domain   1:    9.23489 elapsed seconds
Timing for main: time 2016-02-05_12:32:13 on domain   3:     .28484 elapsed seconds
Timing for main: time 2016-02-05_12:32:26 on domain   3:     .27217 elapsed seconds
Timing for main: time 2016-02-05_12:32:40 on domain   3:     .27034 elapsed seconds
Timing for main: time 2016-02-05_12:32:20 on domain   4:     .34306 elapsed seconds
Timing for main: time 2016-02-05_12:32:40 on domain   4:     .32392 elapsed seconds
Timing for main: time 2016-02-05_12:32:40 on domain   2:    2.44770 elapsed seconds
Timing for main: time 2016-02-05_12:32:53 on domain   3:     .28547 elapsed seconds
Timing for main: time 2016-02-05_12:33:06 on domain   3:     .27174 elapsed seconds
Timing for main: time 2016-02-05_12:33:20 on domain   3:     .27142 elapsed seconds
Timing for main: time 2016-02-05_12:33:00 on domain   4:     .34373 elapsed seconds
Timing for main: time 2016-02-05_12:33:20 on domain   4:     .32408 elapsed seconds
Timing for main: time 2016-02-05_12:33:20 on domain   2:    2.42985 elapsed seconds
Timing for main: time 2016-02-05_12:33:33 on domain   3:     .29047 elapsed seconds
Timing for main: time 2016-02-05_12:33:46 on domain   3:     .26894 elapsed seconds
Timing for main: time 2016-02-05_12:34:00 on domain   3:     .27142 elapsed seconds
Timing for main: time 2016-02-05_12:33:40 on domain   4:     .39935 elapsed seconds
Timing for main: time 2016-02-05_12:34:00 on domain   4:     .35614 elapsed seconds
Timing for main: time 2016-02-05_12:34:00 on domain   2:    2.51923 elapsed seconds
Timing for main: time 2016-02-05_12:34:00 on domain   1:    7.87210 elapsed seconds
Timing for main: time 2016-02-05_12:34:13 on domain   3:     .28550 elapsed seconds
Timing for main: time 2016-02-05_12:34:26 on domain   3:     .27091 elapsed seconds
Timing for main: time 2016-02-05_12:34:40 on domain   3:     .27111 elapsed seconds
Timing for main: time 2016-02-05_12:34:20 on domain   4:     .34333 elapsed seconds
Timing for main: time 2016-02-05_12:34:40 on domain   4:     .32602 elapsed seconds
Timing for main: time 2016-02-05_12:34:40 on domain   2:    2.45045 elapsed seconds
Timing for main: time 2016-02-05_12:34:53 on domain   3:     .28545 elapsed seconds
Timing for main: time 2016-02-05_12:35:06 on domain   3:     .27595 elapsed seconds
Timing for main: time 2016-02-05_12:35:20 on domain   3:     .27068 elapsed seconds
Timing for main: time 2016-02-05_12:35:00 on domain   4:     .35857 elapsed seconds
Timing for main: time 2016-02-05_12:35:20 on domain   4:     .32355 elapsed seconds
Timing for main: time 2016-02-05_12:35:20 on domain   2:    2.44835 elapsed seconds
Timing for main: time 2016-02-05_12:35:33 on domain   3:     .28581 elapsed seconds
Timing for main: time 2016-02-05_12:35:46 on domain   3:     .28339 elapsed seconds
Timing for main: time 2016-02-05_12:36:00 on domain   3:     .27148 elapsed seconds
Timing for main: time 2016-02-05_12:35:40 on domain   4:     .34313 elapsed seconds
Timing for main: time 2016-02-05_12:36:00 on domain   4:     .32339 elapsed seconds
Timing for main: time 2016-02-05_12:36:00 on domain   2:    2.48514 elapsed seconds
Timing for main: time 2016-02-05_12:36:00 on domain   1:    7.87017 elapsed seconds
Timing for main: time 2016-02-05_12:36:13 on domain   3:     .28550 elapsed seconds
Timing for main: time 2016-02-05_12:36:26 on domain   3:     .27278 elapsed seconds
Timing for main: time 2016-02-05_12:36:40 on domain   3:     .26975 elapsed seconds
Timing for main: time 2016-02-05_12:36:20 on domain   4:     .34695 elapsed seconds
Timing for main: time 2016-02-05_12:36:40 on domain   4:     .32338 elapsed seconds
Timing for main: time 2016-02-05_12:36:40 on domain   2:    2.45102 elapsed seconds
Timing for main: time 2016-02-05_12:36:53 on domain   3:     .28620 elapsed seconds
Timing for main: time 2016-02-05_12:37:06 on domain   3:     .27069 elapsed seconds
Timing for main: time 2016-02-05_12:37:20 on domain   3:     .27178 elapsed seconds
Timing for main: time 2016-02-05_12:37:00 on domain   4:     .34658 elapsed seconds
Timing for main: time 2016-02-05_12:37:20 on domain   4:     .32325 elapsed seconds
Timing for main: time 2016-02-05_12:37:20 on domain   2:    2.44760 elapsed seconds
Timing for main: time 2016-02-05_12:37:33 on domain   3:     .28557 elapsed seconds
Timing for main: time 2016-02-05_12:37:46 on domain   3:     .27085 elapsed seconds
Timing for main: time 2016-02-05_12:38:00 on domain   3:     .27099 elapsed seconds
Timing for main: time 2016-02-05_12:37:40 on domain   4:     .34328 elapsed seconds
Timing for main: time 2016-02-05_12:38:00 on domain   4:     .32313 elapsed seconds
Timing for main: time 2016-02-05_12:38:00 on domain   2:    2.44086 elapsed seconds
Timing for main: time 2016-02-05_12:38:00 on domain   1:    7.81500 elapsed seconds
Timing for main: time 2016-02-05_12:38:13 on domain   3:     .28526 elapsed seconds
Timing for main: time 2016-02-05_12:38:26 on domain   3:     .27123 elapsed seconds
Timing for main: time 2016-02-05_12:38:40 on domain   3:     .27049 elapsed seconds
Timing for main: time 2016-02-05_12:38:20 on domain   4:     .34308 elapsed seconds
Timing for main: time 2016-02-05_12:38:40 on domain   4:     .32461 elapsed seconds
Timing for main: time 2016-02-05_12:38:40 on domain   2:    2.44706 elapsed seconds
Timing for main: time 2016-02-05_12:38:53 on domain   3:     .28566 elapsed seconds
Timing for main: time 2016-02-05_12:39:06 on domain   3:     .27040 elapsed seconds
Timing for main: time 2016-02-05_12:39:20 on domain   3:     .27093 elapsed seconds
Timing for main: time 2016-02-05_12:39:00 on domain   4:     .34284 elapsed seconds
Timing for main: time 2016-02-05_12:39:20 on domain   4:     .32352 elapsed seconds
Timing for main: time 2016-02-05_12:39:20 on domain   2:    2.42762 elapsed seconds
Timing for main: time 2016-02-05_12:39:33 on domain   3:     .28558 elapsed seconds
Timing for main: time 2016-02-05_12:39:46 on domain   3:     .27060 elapsed seconds
Timing for main: time 2016-02-05_12:40:00 on domain   3:     .27420 elapsed seconds
Timing for main: time 2016-02-05_12:39:40 on domain   4:     .34454 elapsed seconds
Timing for main: time 2016-02-05_12:40:00 on domain   4:     .33852 elapsed seconds
Timing for main: time 2016-02-05_12:40:00 on domain   2:    2.44867 elapsed seconds
Timing for main: time 2016-02-05_12:40:00 on domain   1:    7.79884 elapsed seconds
Timing for main: time 2016-02-05_12:40:13 on domain   3:     .28668 elapsed seconds
Timing for main: time 2016-02-05_12:40:26 on domain   3:     .27286 elapsed seconds
Timing for main: time 2016-02-05_12:40:40 on domain   3:     .27018 elapsed seconds
Timing for main: time 2016-02-05_12:40:20 on domain   4:     .35649 elapsed seconds
Timing for main: time 2016-02-05_12:40:40 on domain   4:     .32410 elapsed seconds
Timing for main: time 2016-02-05_12:40:40 on domain   2:    2.46318 elapsed seconds
Timing for main: time 2016-02-05_12:40:53 on domain   3:     .29920 elapsed seconds
Timing for main: time 2016-02-05_12:41:06 on domain   3:     .27123 elapsed seconds
Timing for main: time 2016-02-05_12:41:20 on domain   3:     .27076 elapsed seconds
Timing for main: time 2016-02-05_12:41:00 on domain   4:     .34324 elapsed seconds
Timing for main: time 2016-02-05_12:41:20 on domain   4:     .32354 elapsed seconds
Timing for main: time 2016-02-05_12:41:20 on domain   2:    2.44244 elapsed seconds
Timing for main: time 2016-02-05_12:41:33 on domain   3:     .28917 elapsed seconds
Timing for main: time 2016-02-05_12:41:46 on domain   3:     .27774 elapsed seconds
Timing for main: time 2016-02-05_12:42:00 on domain   3:     .27083 elapsed seconds
Timing for main: time 2016-02-05_12:41:40 on domain   4:     .34321 elapsed seconds
Timing for main: time 2016-02-05_12:42:00 on domain   4:     .32360 elapsed seconds
Timing for main: time 2016-02-05_12:42:00 on domain   2:    2.43897 elapsed seconds
Timing for main: time 2016-02-05_12:42:00 on domain   1:    7.83117 elapsed seconds
Timing for main: time 2016-02-05_12:42:13 on domain   3:     .28529 elapsed seconds
Timing for main: time 2016-02-05_12:42:26 on domain   3:     .27281 elapsed seconds
Timing for main: time 2016-02-05_12:42:40 on domain   3:     .27125 elapsed seconds
Timing for main: time 2016-02-05_12:42:20 on domain   4:     .34368 elapsed seconds
Timing for main: time 2016-02-05_12:42:40 on domain   4:     .32390 elapsed seconds
Timing for main: time 2016-02-05_12:42:40 on domain   2:    2.46686 elapsed seconds
Timing for main: time 2016-02-05_12:42:53 on domain   3:     .28565 elapsed seconds
Timing for main: time 2016-02-05_12:43:06 on domain   3:     .27058 elapsed seconds
Timing for main: time 2016-02-05_12:43:20 on domain   3:     .27051 elapsed seconds
Timing for main: time 2016-02-05_12:43:00 on domain   4:     .34324 elapsed seconds
Timing for main: time 2016-02-05_12:43:20 on domain   4:     .32361 elapsed seconds
Timing for main: time 2016-02-05_12:43:20 on domain   2:    2.43070 elapsed seconds
Timing for main: time 2016-02-05_12:43:33 on domain   3:     .28608 elapsed seconds
Timing for main: time 2016-02-05_12:43:46 on domain   3:     .27034 elapsed seconds
Timing for main: time 2016-02-05_12:44:00 on domain   3:     .27129 elapsed seconds
Timing for main: time 2016-02-05_12:43:40 on domain   4:     .34100 elapsed seconds
Timing for main: time 2016-02-05_12:44:00 on domain   4:     .32558 elapsed seconds
Timing for main: time 2016-02-05_12:44:00 on domain   2:    2.43372 elapsed seconds
Timing for main: time 2016-02-05_12:44:00 on domain   1:    7.80669 elapsed seconds
Timing for main: time 2016-02-05_12:44:13 on domain   3:     .28677 elapsed seconds
Timing for main: time 2016-02-05_12:44:26 on domain   3:     .27109 elapsed seconds
Timing for main: time 2016-02-05_12:44:40 on domain   3:     .27478 elapsed seconds
Timing for main: time 2016-02-05_12:44:20 on domain   4:     .34333 elapsed seconds
Timing for main: time 2016-02-05_12:44:40 on domain   4:     .32406 elapsed seconds
Timing for main: time 2016-02-05_12:44:40 on domain   2:    2.45442 elapsed seconds
Timing for main: time 2016-02-05_12:44:53 on domain   3:     .28635 elapsed seconds
Timing for main: time 2016-02-05_12:45:06 on domain   3:     .27024 elapsed seconds
Timing for main: time 2016-02-05_12:45:20 on domain   3:     .27244 elapsed seconds
Timing for main: time 2016-02-05_12:45:00 on domain   4:     .35818 elapsed seconds
Timing for main: time 2016-02-05_12:45:20 on domain   4:     .32391 elapsed seconds
Timing for main: time 2016-02-05_12:45:20 on domain   2:    2.44645 elapsed seconds
Timing for main: time 2016-02-05_12:45:33 on domain   3:     .28589 elapsed seconds
Timing for main: time 2016-02-05_12:45:46 on domain   3:     .27054 elapsed seconds
Timing for main: time 2016-02-05_12:46:00 on domain   3:     .28408 elapsed seconds
Timing for main: time 2016-02-05_12:45:40 on domain   4:     .34371 elapsed seconds
Timing for main: time 2016-02-05_12:46:00 on domain   4:     .32406 elapsed seconds
Timing for main: time 2016-02-05_12:46:00 on domain   2:    2.44709 elapsed seconds
Timing for main: time 2016-02-05_12:46:00 on domain   1:    7.82358 elapsed seconds
Timing for main: time 2016-02-05_12:46:13 on domain   3:     .32650 elapsed seconds
Timing for main: time 2016-02-05_12:46:26 on domain   3:     .33379 elapsed seconds
Timing for main: time 2016-02-05_12:46:40 on domain   3:     .27034 elapsed seconds
Timing for main: time 2016-02-05_12:46:20 on domain   4:     .44323 elapsed seconds
Timing for main: time 2016-02-05_12:46:40 on domain   4:     .32429 elapsed seconds
Timing for main: time 2016-02-05_12:46:40 on domain   2:    2.65190 elapsed seconds
Timing for main: time 2016-02-05_12:46:53 on domain   3:     .28430 elapsed seconds
Timing for main: time 2016-02-05_12:47:06 on domain   3:     .27455 elapsed seconds
Timing for main: time 2016-02-05_12:47:20 on domain   3:     .27017 elapsed seconds
Timing for main: time 2016-02-05_12:47:00 on domain   4:     .34382 elapsed seconds
Timing for main: time 2016-02-05_12:47:20 on domain   4:     .32413 elapsed seconds
Timing for main: time 2016-02-05_12:47:20 on domain   2:    2.43199 elapsed seconds
Timing for main: time 2016-02-05_12:47:33 on domain   3:     .28627 elapsed seconds
Timing for main: time 2016-02-05_12:47:46 on domain   3:     .26986 elapsed seconds
Timing for main: time 2016-02-05_12:48:00 on domain   3:     .27041 elapsed seconds
Timing for main: time 2016-02-05_12:47:40 on domain   4:     .34342 elapsed seconds
Timing for main: time 2016-02-05_12:48:00 on domain   4:     .32631 elapsed seconds
Timing for main: time 2016-02-05_12:48:00 on domain   2:    2.44605 elapsed seconds
Timing for main: time 2016-02-05_12:48:00 on domain   1:    8.01638 elapsed seconds
Timing for main: time 2016-02-05_12:48:13 on domain   3:     .27681 elapsed seconds
Timing for main: time 2016-02-05_12:48:26 on domain   3:     .27084 elapsed seconds
Timing for main: time 2016-02-05_12:48:40 on domain   3:     .27187 elapsed seconds
Timing for main: time 2016-02-05_12:48:20 on domain   4:     .34427 elapsed seconds
Timing for main: time 2016-02-05_12:48:40 on domain   4:     .32464 elapsed seconds
Timing for main: time 2016-02-05_12:48:40 on domain   2:    2.45163 elapsed seconds
Timing for main: time 2016-02-05_12:48:53 on domain   3:     .28653 elapsed seconds
Timing for main: time 2016-02-05_12:49:06 on domain   3:     .27092 elapsed seconds
Timing for main: time 2016-02-05_12:49:20 on domain   3:     .27087 elapsed seconds
Timing for main: time 2016-02-05_12:49:00 on domain   4:     .34369 elapsed seconds
Timing for main: time 2016-02-05_12:49:20 on domain   4:     .32539 elapsed seconds
Timing for main: time 2016-02-05_12:49:20 on domain   2:    2.43329 elapsed seconds
Timing for main: time 2016-02-05_12:49:33 on domain   3:     .28529 elapsed seconds
Timing for main: time 2016-02-05_12:49:46 on domain   3:     .27052 elapsed seconds
Timing for main: time 2016-02-05_12:50:00 on domain   3:     .27121 elapsed seconds
Timing for main: time 2016-02-05_12:49:40 on domain   4:     .34341 elapsed seconds
Timing for main: time 2016-02-05_12:50:00 on domain   4:     .33835 elapsed seconds
Timing for main: time 2016-02-05_12:50:00 on domain   2:    2.44587 elapsed seconds
Timing for main: time 2016-02-05_12:50:00 on domain   1:    7.80675 elapsed seconds
Timing for main: time 2016-02-05_12:50:13 on domain   3:     .28664 elapsed seconds
Timing for main: time 2016-02-05_12:50:26 on domain   3:     .27035 elapsed seconds
Timing for main: time 2016-02-05_12:50:40 on domain   3:     .27030 elapsed seconds
Timing for main: time 2016-02-05_12:50:20 on domain   4:     .34402 elapsed seconds
Timing for main: time 2016-02-05_12:50:40 on domain   4:     .32448 elapsed seconds
Timing for main: time 2016-02-05_12:50:40 on domain   2:    2.44893 elapsed seconds
Timing for main: time 2016-02-05_12:50:53 on domain   3:     .28570 elapsed seconds
Timing for main: time 2016-02-05_12:51:06 on domain   3:     .28272 elapsed seconds
Timing for main: time 2016-02-05_12:51:20 on domain   3:     .27014 elapsed seconds
Timing for main: time 2016-02-05_12:51:00 on domain   4:     .34324 elapsed seconds
Timing for main: time 2016-02-05_12:51:20 on domain   4:     .32389 elapsed seconds
Timing for main: time 2016-02-05_12:51:20 on domain   2:    2.44072 elapsed seconds
Timing for main: time 2016-02-05_12:51:33 on domain   3:     .28573 elapsed seconds
Timing for main: time 2016-02-05_12:51:46 on domain   3:     .27273 elapsed seconds
Timing for main: time 2016-02-05_12:52:00 on domain   3:     .27110 elapsed seconds
Timing for main: time 2016-02-05_12:51:40 on domain   4:     .34344 elapsed seconds
Timing for main: time 2016-02-05_12:52:00 on domain   4:     .32796 elapsed seconds
Timing for main: time 2016-02-05_12:52:00 on domain   2:    2.43493 elapsed seconds
Timing for main: time 2016-02-05_12:52:00 on domain   1:    7.80067 elapsed seconds
Timing for main: time 2016-02-05_12:52:13 on domain   3:     .28528 elapsed seconds
Timing for main: time 2016-02-05_12:52:26 on domain   3:     .27092 elapsed seconds
Timing for main: time 2016-02-05_12:52:40 on domain   3:     .27132 elapsed seconds
Timing for main: time 2016-02-05_12:52:20 on domain   4:     .34376 elapsed seconds
Timing for main: time 2016-02-05_12:52:40 on domain   4:     .32476 elapsed seconds
Timing for main: time 2016-02-05_12:52:40 on domain   2:    2.44846 elapsed seconds
Timing for main: time 2016-02-05_12:52:53 on domain   3:     .28505 elapsed seconds
Timing for main: time 2016-02-05_12:53:06 on domain   3:     .27137 elapsed seconds
Timing for main: time 2016-02-05_12:53:20 on domain   3:     .27343 elapsed seconds
Timing for main: time 2016-02-05_12:53:00 on domain   4:     .34338 elapsed seconds
Timing for main: time 2016-02-05_12:53:20 on domain   4:     .32380 elapsed seconds
Timing for main: time 2016-02-05_12:53:20 on domain   2:    2.44808 elapsed seconds
Timing for main: time 2016-02-05_12:53:33 on domain   3:     .28584 elapsed seconds
Timing for main: time 2016-02-05_12:53:46 on domain   3:     .27051 elapsed seconds
Timing for main: time 2016-02-05_12:54:00 on domain   3:     .27042 elapsed seconds
Timing for main: time 2016-02-05_12:53:40 on domain   4:     .34343 elapsed seconds
Timing for main: time 2016-02-05_12:54:00 on domain   4:     .32602 elapsed seconds
Timing for main: time 2016-02-05_12:54:00 on domain   2:    2.43014 elapsed seconds
Timing for main: time 2016-02-05_12:54:00 on domain   1:    7.81307 elapsed seconds
Timing for main: time 2016-02-05_12:54:13 on domain   3:     .28533 elapsed seconds
Timing for main: time 2016-02-05_12:54:26 on domain   3:     .27082 elapsed seconds
Timing for main: time 2016-02-05_12:54:40 on domain   3:     .26992 elapsed seconds
Timing for main: time 2016-02-05_12:54:20 on domain   4:     .34497 elapsed seconds
Timing for main: time 2016-02-05_12:54:40 on domain   4:     .32455 elapsed seconds
Timing for main: time 2016-02-05_12:54:40 on domain   2:    2.44870 elapsed seconds
Timing for main: time 2016-02-05_12:54:53 on domain   3:     .28569 elapsed seconds
Timing for main: time 2016-02-05_12:55:06 on domain   3:     .27249 elapsed seconds
Timing for main: time 2016-02-05_12:55:20 on domain   3:     .27072 elapsed seconds
Timing for main: time 2016-02-05_12:55:00 on domain   4:     .35902 elapsed seconds
Timing for main: time 2016-02-05_12:55:20 on domain   4:     .32380 elapsed seconds
Timing for main: time 2016-02-05_12:55:20 on domain   2:    2.44586 elapsed seconds
Timing for main: time 2016-02-05_12:55:33 on domain   3:     .28561 elapsed seconds
Timing for main: time 2016-02-05_12:55:46 on domain   3:     .27149 elapsed seconds
Timing for main: time 2016-02-05_12:56:00 on domain   3:     .27079 elapsed seconds
Timing for main: time 2016-02-05_12:55:40 on domain   4:     .34439 elapsed seconds
Timing for main: time 2016-02-05_12:56:00 on domain   4:     .32427 elapsed seconds
Timing for main: time 2016-02-05_12:56:00 on domain   2:    2.42988 elapsed seconds
Timing for main: time 2016-02-05_12:56:00 on domain   1:    7.79835 elapsed seconds
Timing for main: time 2016-02-05_12:56:13 on domain   3:     .30040 elapsed seconds
Timing for main: time 2016-02-05_12:56:26 on domain   3:     .27004 elapsed seconds
Timing for main: time 2016-02-05_12:56:40 on domain   3:     .27087 elapsed seconds
Timing for main: time 2016-02-05_12:56:20 on domain   4:     .34038 elapsed seconds
Timing for main: time 2016-02-05_12:56:40 on domain   4:     .32385 elapsed seconds
Timing for main: time 2016-02-05_12:56:40 on domain   2:    2.46207 elapsed seconds
Timing for main: time 2016-02-05_12:56:53 on domain   3:     .28498 elapsed seconds
Timing for main: time 2016-02-05_12:57:06 on domain   3:     .27192 elapsed seconds
Timing for main: time 2016-02-05_12:57:20 on domain   3:     .27092 elapsed seconds
Timing for main: time 2016-02-05_12:57:00 on domain   4:     .34394 elapsed seconds
Timing for main: time 2016-02-05_12:57:20 on domain   4:     .32346 elapsed seconds
Timing for main: time 2016-02-05_12:57:20 on domain   2:    2.43003 elapsed seconds
Timing for main: time 2016-02-05_12:57:33 on domain   3:     .28640 elapsed seconds
Timing for main: time 2016-02-05_12:57:46 on domain   3:     .26983 elapsed seconds
Timing for main: time 2016-02-05_12:58:00 on domain   3:     .27514 elapsed seconds
Timing for main: time 2016-02-05_12:57:40 on domain   4:     .34405 elapsed seconds
Timing for main: time 2016-02-05_12:58:00 on domain   4:     .32392 elapsed seconds
Timing for main: time 2016-02-05_12:58:00 on domain   2:    2.43255 elapsed seconds
Timing for main: time 2016-02-05_12:58:00 on domain   1:    7.79941 elapsed seconds
  photolysis_driver: called for domain  1
Timing for main: time 2016-02-05_12:58:13 on domain   3:     .28530 elapsed seconds
Timing for main: time 2016-02-05_12:58:26 on domain   3:     .27039 elapsed seconds
Timing for main: time 2016-02-05_12:58:40 on domain   3:     .27082 elapsed seconds
Timing for main: time 2016-02-05_12:58:20 on domain   4:     .34405 elapsed seconds
Timing for main: time 2016-02-05_12:58:40 on domain   4:     .32432 elapsed seconds
Timing for main: time 2016-02-05_12:58:40 on domain   2:    2.46289 elapsed seconds
Timing for main: time 2016-02-05_12:58:53 on domain   3:     .28561 elapsed seconds
Timing for main: time 2016-02-05_12:59:06 on domain   3:     .27080 elapsed seconds
Timing for main: time 2016-02-05_12:59:20 on domain   3:     .27533 elapsed seconds
Timing for main: time 2016-02-05_12:59:00 on domain   4:     .34365 elapsed seconds
Timing for main: time 2016-02-05_12:59:20 on domain   4:     .32409 elapsed seconds
Timing for main: time 2016-02-05_12:59:20 on domain   2:    2.43299 elapsed seconds
  photolysis_driver: called for domain  2
Timing for main: time 2016-02-05_12:59:33 on domain   3:     .28986 elapsed seconds
Timing for main: time 2016-02-05_12:59:46 on domain   3:     .27065 elapsed seconds
  photolysis_driver: called for domain  3
Timing for main: time 2016-02-05_13:00:00 on domain   3:    1.65744 elapsed seconds
Timing for main: time 2016-02-05_12:59:40 on domain   4:     .34393 elapsed seconds
  photolysis_driver: called for domain  4
Timing for main: time 2016-02-05_13:00:00 on domain   4:    1.92292 elapsed seconds
Timing for main: time 2016-02-05_13:00:00 on domain   2:    7.15195 elapsed seconds
Timing for main: time 2016-02-05_13:00:00 on domain   1:   13.56264 elapsed seconds
Timing for Writing wrfout_d01_2016-02-05_13:00:00 for domain        1:    1.35534 elapsed seconds
  HOURLY EMISSIONS UPDATE TIME     3600.0        .0
 mediation_integrate: med_read_wrf_chem_emissions: Read emissions for time 2016-02-05_13:00:00
 **WARNING** Time in input file not being checked **WARNING**
Timing for Writing wrfout_d02_2016-02-05_13:00:00 for domain        2:    1.88165 elapsed seconds
Timing for Writing wrfout_d03_2016-02-05_13:00:00 for domain        3:    1.70492 elapsed seconds
Timing for main: time 2016-02-05_13:00:13 on domain   3:    2.31935 elapsed seconds
Timing for main: time 2016-02-05_13:00:26 on domain   3:     .38393 elapsed seconds
Timing for main: time 2016-02-05_13:00:40 on domain   3:     .26950 elapsed seconds
Timing for Writing wrfout_d04_2016-02-05_13:00:00 for domain        4:    1.89740 elapsed seconds
Timing for main: time 2016-02-05_13:00:20 on domain   4:    2.63118 elapsed seconds
Timing for main: time 2016-02-05_13:00:40 on domain   4:     .37650 elapsed seconds
Timing for main: time 2016-02-05_13:00:40 on domain   2:    9.27853 elapsed seconds
Timing for main: time 2016-02-05_13:00:53 on domain   3:     .28656 elapsed seconds
Timing for main: time 2016-02-05_13:01:06 on domain   3:     .27321 elapsed seconds
Timing for main: time 2016-02-05_13:01:20 on domain   3:     .28865 elapsed seconds
Timing for main: time 2016-02-05_13:01:00 on domain   4:     .34402 elapsed seconds
Timing for main: time 2016-02-05_13:01:20 on domain   4:     .32409 elapsed seconds
Timing for main: time 2016-02-05_13:01:20 on domain   2:    2.45086 elapsed seconds
Timing for main: time 2016-02-05_13:01:33 on domain   3:     .28584 elapsed seconds
Timing for main: time 2016-02-05_13:01:46 on domain   3:     .27303 elapsed seconds
Timing for main: time 2016-02-05_13:02:00 on domain   3:     .27097 elapsed seconds
Timing for main: time 2016-02-05_13:01:40 on domain   4:     .34443 elapsed seconds
Timing for main: time 2016-02-05_13:02:00 on domain   4:     .32678 elapsed seconds
Timing for main: time 2016-02-05_13:02:00 on domain   2:    2.43513 elapsed seconds
Timing for main: time 2016-02-05_13:02:00 on domain   1:   16.65483 elapsed seconds
Timing for main: time 2016-02-05_13:02:13 on domain   3:     .28597 elapsed seconds
Timing for main: time 2016-02-05_13:02:26 on domain   3:     .27008 elapsed seconds
Timing for main: time 2016-02-05_13:02:40 on domain   3:     .27096 elapsed seconds
Timing for main: time 2016-02-05_13:02:20 on domain   4:     .34503 elapsed seconds
Timing for main: time 2016-02-05_13:02:40 on domain   4:     .32579 elapsed seconds
Timing for main: time 2016-02-05_13:02:40 on domain   2:    2.49593 elapsed seconds
Timing for main: time 2016-02-05_13:02:53 on domain   3:     .28533 elapsed seconds
Timing for main: time 2016-02-05_13:03:06 on domain   3:     .27332 elapsed seconds
Timing for main: time 2016-02-05_13:03:20 on domain   3:     .26822 elapsed seconds
Timing for main: time 2016-02-05_13:03:00 on domain   4:     .34714 elapsed seconds
Timing for main: time 2016-02-05_13:03:20 on domain   4:     .32534 elapsed seconds
Timing for main: time 2016-02-05_13:03:20 on domain   2:    2.43448 elapsed seconds
Timing for main: time 2016-02-05_13:03:33 on domain   3:     .29974 elapsed seconds
Timing for main: time 2016-02-05_13:03:46 on domain   3:     .33032 elapsed seconds
Timing for main: time 2016-02-05_13:04:00 on domain   3:     .29962 elapsed seconds
Timing for main: time 2016-02-05_13:03:40 on domain   4:     .34375 elapsed seconds
Timing for main: time 2016-02-05_13:04:00 on domain   4:     .32432 elapsed seconds
Timing for main: time 2016-02-05_13:04:00 on domain   2:    2.54763 elapsed seconds
Timing for main: time 2016-02-05_13:04:00 on domain   1:    7.95465 elapsed seconds
Timing for main: time 2016-02-05_13:04:13 on domain   3:     .30035 elapsed seconds
Timing for main: time 2016-02-05_13:04:26 on domain   3:     .27068 elapsed seconds
Timing for main: time 2016-02-05_13:04:40 on domain   3:     .27078 elapsed seconds
Timing for main: time 2016-02-05_13:04:20 on domain   4:     .34361 elapsed seconds
Timing for main: time 2016-02-05_13:04:40 on domain   4:     .32500 elapsed seconds
Timing for main: time 2016-02-05_13:04:40 on domain   2:    2.46717 elapsed seconds
Timing for main: time 2016-02-05_13:04:53 on domain   3:     .28558 elapsed seconds
Timing for main: time 2016-02-05_13:05:06 on domain   3:     .27106 elapsed seconds
Timing for main: time 2016-02-05_13:05:20 on domain   3:     .27079 elapsed seconds
Timing for main: time 2016-02-05_13:05:00 on domain   4:     .35930 elapsed seconds
Timing for main: time 2016-02-05_13:05:20 on domain   4:     .32471 elapsed seconds
Timing for main: time 2016-02-05_13:05:20 on domain   2:    2.44572 elapsed seconds
Timing for main: time 2016-02-05_13:05:33 on domain   3:     .28649 elapsed seconds
Timing for main: time 2016-02-05_13:05:46 on domain   3:     .27066 elapsed seconds
Timing for main: time 2016-02-05_13:06:00 on domain   3:     .27077 elapsed seconds
Timing for main: time 2016-02-05_13:05:40 on domain   4:     .34354 elapsed seconds
Timing for main: time 2016-02-05_13:06:00 on domain   4:     .32450 elapsed seconds
Timing for main: time 2016-02-05_13:06:00 on domain   2:    2.42978 elapsed seconds
Timing for main: time 2016-02-05_13:06:00 on domain   1:    7.82990 elapsed seconds
Timing for main: time 2016-02-05_13:06:13 on domain   3:     .28579 elapsed seconds
Timing for main: time 2016-02-05_13:06:26 on domain   3:     .28395 elapsed seconds
Timing for main: time 2016-02-05_13:06:40 on domain   3:     .27047 elapsed seconds
Timing for main: time 2016-02-05_13:06:20 on domain   4:     .34492 elapsed seconds
Timing for main: time 2016-02-05_13:06:40 on domain   4:     .32445 elapsed seconds
Timing for main: time 2016-02-05_13:06:40 on domain   2:    2.46335 elapsed seconds
Timing for main: time 2016-02-05_13:06:53 on domain   3:     .28538 elapsed seconds
Timing for main: time 2016-02-05_13:07:06 on domain   3:     .27130 elapsed seconds
Timing for main: time 2016-02-05_13:07:20 on domain   3:     .27236 elapsed seconds
Timing for main: time 2016-02-05_13:07:00 on domain   4:     .34628 elapsed seconds
Timing for main: time 2016-02-05_13:07:20 on domain   4:     .32408 elapsed seconds
Timing for main: time 2016-02-05_13:07:20 on domain   2:    2.43415 elapsed seconds
Timing for main: time 2016-02-05_13:07:33 on domain   3:     .28535 elapsed seconds
Timing for main: time 2016-02-05_13:07:46 on domain   3:     .27100 elapsed seconds
Timing for main: time 2016-02-05_13:08:00 on domain   3:     .27227 elapsed seconds
Timing for main: time 2016-02-05_13:07:40 on domain   4:     .34539 elapsed seconds
Timing for main: time 2016-02-05_13:08:00 on domain   4:     .32436 elapsed seconds
Timing for main: time 2016-02-05_13:08:00 on domain   2:    2.43325 elapsed seconds
Timing for main: time 2016-02-05_13:08:00 on domain   1:    7.80622 elapsed seconds
Timing for main: time 2016-02-05_13:08:13 on domain   3:     .28521 elapsed seconds
Timing for main: time 2016-02-05_13:08:26 on domain   3:     .27125 elapsed seconds
Timing for main: time 2016-02-05_13:08:40 on domain   3:     .27100 elapsed seconds
Timing for main: time 2016-02-05_13:08:20 on domain   4:     .35089 elapsed seconds
Timing for main: time 2016-02-05_13:08:40 on domain   4:     .32438 elapsed seconds
Timing for main: time 2016-02-05_13:08:40 on domain   2:    2.45581 elapsed seconds
Timing for main: time 2016-02-05_13:08:53 on domain   3:     .28527 elapsed seconds
Timing for main: time 2016-02-05_13:09:06 on domain   3:     .27204 elapsed seconds
Timing for main: time 2016-02-05_13:09:20 on domain   3:     .27086 elapsed seconds
Timing for main: time 2016-02-05_13:09:00 on domain   4:     .34488 elapsed seconds
Timing for main: time 2016-02-05_13:09:20 on domain   4:     .32433 elapsed seconds
Timing for main: time 2016-02-05_13:09:20 on domain   2:    2.44970 elapsed seconds
Timing for main: time 2016-02-05_13:09:33 on domain   3:     .28866 elapsed seconds
Timing for main: time 2016-02-05_13:09:46 on domain   3:     .27205 elapsed seconds
Timing for main: time 2016-02-05_13:10:00 on domain   3:     .27109 elapsed seconds
Timing for main: time 2016-02-05_13:09:40 on domain   4:     .34284 elapsed seconds
Timing for main: time 2016-02-05_13:10:00 on domain   4:     .33891 elapsed seconds
Timing for main: time 2016-02-05_13:10:00 on domain   2:    2.44625 elapsed seconds
Timing for main: time 2016-02-05_13:10:00 on domain   1:    7.82695 elapsed seconds
Timing for main: time 2016-02-05_13:10:13 on domain   3:     .28484 elapsed seconds
Timing for main: time 2016-02-05_13:10:26 on domain   3:     .27107 elapsed seconds
Timing for main: time 2016-02-05_13:10:40 on domain   3:     .27155 elapsed seconds
Timing for main: time 2016-02-05_13:10:20 on domain   4:     .34336 elapsed seconds
Timing for main: time 2016-02-05_13:10:40 on domain   4:     .32414 elapsed seconds
Timing for main: time 2016-02-05_13:10:40 on domain   2:    2.44794 elapsed seconds
Timing for main: time 2016-02-05_13:10:53 on domain   3:     .28556 elapsed seconds
Timing for main: time 2016-02-05_13:11:06 on domain   3:     .27084 elapsed seconds
Timing for main: time 2016-02-05_13:11:20 on domain   3:     .27119 elapsed seconds
Timing for main: time 2016-02-05_13:11:00 on domain   4:     .35071 elapsed seconds
Timing for main: time 2016-02-05_13:11:20 on domain   4:     .32326 elapsed seconds
Timing for main: time 2016-02-05_13:11:20 on domain   2:    2.43618 elapsed seconds
Timing for main: time 2016-02-05_13:11:33 on domain   3:     .29739 elapsed seconds
Timing for main: time 2016-02-05_13:11:46 on domain   3:     .27089 elapsed seconds
Timing for main: time 2016-02-05_13:12:00 on domain   3:     .27138 elapsed seconds
Timing for main: time 2016-02-05_13:11:40 on domain   4:     .34693 elapsed seconds
Timing for main: time 2016-02-05_13:12:00 on domain   4:     .32387 elapsed seconds
Timing for main: time 2016-02-05_13:12:00 on domain   2:    2.44608 elapsed seconds
Timing for main: time 2016-02-05_13:12:00 on domain   1:    7.81608 elapsed seconds
Timing for main: time 2016-02-05_13:12:13 on domain   3:     .28820 elapsed seconds
Timing for main: time 2016-02-05_13:12:26 on domain   3:     .27444 elapsed seconds
Timing for main: time 2016-02-05_13:12:40 on domain   3:     .27103 elapsed seconds
Timing for main: time 2016-02-05_13:12:20 on domain   4:     .34354 elapsed seconds
Timing for main: time 2016-02-05_13:12:40 on domain   4:     .32474 elapsed seconds
Timing for main: time 2016-02-05_13:12:40 on domain   2:    2.45559 elapsed seconds
Timing for main: time 2016-02-05_13:12:53 on domain   3:     .28545 elapsed seconds
Timing for main: time 2016-02-05_13:13:06 on domain   3:     .27148 elapsed seconds
Timing for main: time 2016-02-05_13:13:20 on domain   3:     .27117 elapsed seconds
Timing for main: time 2016-02-05_13:13:00 on domain   4:     .34363 elapsed seconds
Timing for main: time 2016-02-05_13:13:20 on domain   4:     .32434 elapsed seconds
Timing for main: time 2016-02-05_13:13:20 on domain   2:    2.43077 elapsed seconds
Timing for main: time 2016-02-05_13:13:33 on domain   3:     .37301 elapsed seconds
Timing for main: time 2016-02-05_13:13:46 on domain   3:     .27394 elapsed seconds
Timing for main: time 2016-02-05_13:14:00 on domain   3:     .27115 elapsed seconds
Timing for main: time 2016-02-05_13:13:40 on domain   4:     .34536 elapsed seconds
Timing for main: time 2016-02-05_13:14:00 on domain   4:     .32449 elapsed seconds
Timing for main: time 2016-02-05_13:14:00 on domain   2:    2.52376 elapsed seconds
Timing for main: time 2016-02-05_13:14:00 on domain   1:    7.88589 elapsed seconds
Timing for main: time 2016-02-05_13:14:13 on domain   3:     .28538 elapsed seconds
Timing for main: time 2016-02-05_13:14:26 on domain   3:     .27488 elapsed seconds
Timing for main: time 2016-02-05_13:14:40 on domain   3:     .27095 elapsed seconds
Timing for main: time 2016-02-05_13:14:20 on domain   4:     .35274 elapsed seconds
Timing for main: time 2016-02-05_13:14:40 on domain   4:     .32314 elapsed seconds
Timing for main: time 2016-02-05_13:14:40 on domain   2:    2.47725 elapsed seconds
Timing for main: time 2016-02-05_13:14:53 on domain   3:     .28521 elapsed seconds
Timing for main: time 2016-02-05_13:15:06 on domain   3:     .27194 elapsed seconds
Timing for main: time 2016-02-05_13:15:20 on domain   3:     .27097 elapsed seconds
Timing for main: time 2016-02-05_13:15:00 on domain   4:     .35998 elapsed seconds
Timing for main: time 2016-02-05_13:15:20 on domain   4:     .32409 elapsed seconds
Timing for main: time 2016-02-05_13:15:20 on domain   2:    2.44714 elapsed seconds
Timing for main: time 2016-02-05_13:15:33 on domain   3:     .28585 elapsed seconds
Timing for main: time 2016-02-05_13:15:46 on domain   3:     .27106 elapsed seconds
Timing for main: time 2016-02-05_13:16:00 on domain   3:     .27122 elapsed seconds
Timing for main: time 2016-02-05_13:15:40 on domain   4:     .34051 elapsed seconds
Timing for main: time 2016-02-05_13:16:00 on domain   4:     .32439 elapsed seconds
Timing for main: time 2016-02-05_13:16:00 on domain   2:    2.43104 elapsed seconds
Timing for main: time 2016-02-05_13:16:00 on domain   1:    7.83133 elapsed seconds
Timing for main: time 2016-02-05_13:16:13 on domain   3:     .28556 elapsed seconds
Timing for main: time 2016-02-05_13:16:26 on domain   3:     .27706 elapsed seconds
Timing for main: time 2016-02-05_13:16:40 on domain   3:     .28268 elapsed seconds
Timing for main: time 2016-02-05_13:16:20 on domain   4:     .34332 elapsed seconds
Timing for main: time 2016-02-05_13:16:40 on domain   4:     .32632 elapsed seconds
Timing for main: time 2016-02-05_13:16:40 on domain   2:    2.47238 elapsed seconds
Timing for main: time 2016-02-05_13:16:53 on domain   3:     .28791 elapsed seconds
Timing for main: time 2016-02-05_13:17:06 on domain   3:     .27086 elapsed seconds
Timing for main: time 2016-02-05_13:17:20 on domain   3:     .27108 elapsed seconds
Timing for main: time 2016-02-05_13:17:00 on domain   4:     .34628 elapsed seconds
Timing for main: time 2016-02-05_13:17:20 on domain   4:     .32346 elapsed seconds
Timing for main: time 2016-02-05_13:17:20 on domain   2:    2.43510 elapsed seconds
Timing for main: time 2016-02-05_13:17:33 on domain   3:     .28524 elapsed seconds
[...]
Timing for main: time 2016-02-05_21:36:00 on domain   2:    2.46308 elapsed seconds
Timing for main: time 2016-02-05_21:36:00 on domain   1:    7.87732 elapsed seconds
Timing for main: time 2016-02-05_21:36:13 on domain   3:     .29041 elapsed seconds
Timing for main: time 2016-02-05_21:36:26 on domain   3:     .27354 elapsed seconds
Timing for main: time 2016-02-05_21:36:40 on domain   3:     .27397 elapsed seconds
Timing for main: time 2016-02-05_21:36:20 on domain   4:     .33936 elapsed seconds
Timing for main: time 2016-02-05_21:36:40 on domain   4:     .32325 elapsed seconds
Timing for main: time 2016-02-05_21:36:40 on domain   2:    2.45575 elapsed seconds
Timing for main: time 2016-02-05_21:36:53 on domain   3:     .28829 elapsed seconds
Timing for main: time 2016-02-05_21:37:06 on domain   3:     .27328 elapsed seconds
Timing for main: time 2016-02-05_21:37:20 on domain   3:     .27421 elapsed seconds
Timing for main: time 2016-02-05_21:37:00 on domain   4:     .34301 elapsed seconds
Timing for main: time 2016-02-05_21:37:20 on domain   4:     .32341 elapsed seconds
Timing for main: time 2016-02-05_21:37:20 on domain   2:    2.43666 elapsed seconds
Timing for main: time 2016-02-05_21:37:33 on domain   3:     .30249 elapsed seconds
Timing for main: time 2016-02-05_21:37:46 on domain   3:     .27238 elapsed seconds
Timing for main: time 2016-02-05_21:38:00 on domain   3:     .27388 elapsed seconds
Timing for main: time 2016-02-05_21:37:40 on domain   4:     .34314 elapsed seconds
Timing for main: time 2016-02-05_21:38:00 on domain   4:     .32390 elapsed seconds
Timing for main: time 2016-02-05_21:38:00 on domain   2:    2.44872 elapsed seconds
Timing for main: time 2016-02-05_21:38:00 on domain   1:    7.83016 elapsed seconds
Timing for main: time 2016-02-05_21:38:13 on domain   3:     .28886 elapsed seconds
Timing for main: time 2016-02-05_21:38:26 on domain   3:     .27373 elapsed seconds
Timing for main: time 2016-02-05_21:38:40 on domain   3:     .27371 elapsed seconds
Timing for main: time 2016-02-05_21:38:20 on domain   4:     .34280 elapsed seconds
Timing for main: time 2016-02-05_21:38:40 on domain   4:     .32402 elapsed seconds
Timing for main: time 2016-02-05_21:38:40 on domain   2:    2.45641 elapsed seconds
Timing for main: time 2016-02-05_21:38:53 on domain   3:     .28897 elapsed seconds
Timing for main: time 2016-02-05_21:39:06 on domain   3:     .27382 elapsed seconds
Timing for main: time 2016-02-05_21:39:20 on domain   3:     .27605 elapsed seconds
Timing for main: time 2016-02-05_21:39:00 on domain   4:     .34302 elapsed seconds
Timing for main: time 2016-02-05_21:39:20 on domain   4:     .32402 elapsed seconds
Timing for main: time 2016-02-05_21:39:20 on domain   2:    2.43841 elapsed seconds
Timing for main: time 2016-02-05_21:39:33 on domain   3:     .28900 elapsed seconds
Timing for main: time 2016-02-05_21:39:46 on domain   3:     .27421 elapsed seconds
Timing for main: time 2016-02-05_21:40:00 on domain   3:     .27386 elapsed seconds
Timing for main: time 2016-02-05_21:39:40 on domain   4:     .34648 elapsed seconds
Timing for main: time 2016-02-05_21:40:00 on domain   4:     .33806 elapsed seconds
Timing for main: time 2016-02-05_21:40:00 on domain   2:    2.45545 elapsed seconds
Timing for main: time 2016-02-05_21:40:00 on domain   1:    7.83723 elapsed seconds
Timing for main: time 2016-02-05_21:40:13 on domain   3:     .28839 elapsed seconds
Timing for main: time 2016-02-05_21:40:26 on domain   3:     .27387 elapsed seconds
Timing for main: time 2016-02-05_21:40:40 on domain   3:     .27365 elapsed seconds
Timing for main: time 2016-02-05_21:40:20 on domain   4:     .34576 elapsed seconds
Timing for main: time 2016-02-05_21:40:40 on domain   4:     .32348 elapsed seconds
Timing for main: time 2016-02-05_21:40:40 on domain   2:    2.45787 elapsed seconds
Timing for main: time 2016-02-05_21:40:53 on domain   3:     .28879 elapsed seconds
Timing for main: time 2016-02-05_21:41:06 on domain   3:     .27387 elapsed seconds
Timing for main: time 2016-02-05_21:41:20 on domain   3:     .27376 elapsed seconds
Timing for main: time 2016-02-05_21:41:00 on domain   4:     .34460 elapsed seconds
Timing for main: time 2016-02-05_21:41:20 on domain   4:     .32326 elapsed seconds
Timing for main: time 2016-02-05_21:41:20 on domain   2:    2.45515 elapsed seconds
Timing for main: time 2016-02-05_21:41:33 on domain   3:     .29001 elapsed seconds
Timing for main: time 2016-02-05_21:41:46 on domain   3:     .27590 elapsed seconds
Timing for main: time 2016-02-05_21:42:00 on domain   3:     .27153 elapsed seconds
Timing for main: time 2016-02-05_21:41:40 on domain   4:     .34354 elapsed seconds
Timing for main: time 2016-02-05_21:42:00 on domain   4:     .32368 elapsed seconds
Timing for main: time 2016-02-05_21:42:00 on domain   2:    2.43945 elapsed seconds
Timing for main: time 2016-02-05_21:42:00 on domain   1:    7.85887 elapsed seconds
Timing for main: time 2016-02-05_21:42:13 on domain   3:     .29047 elapsed seconds
Timing for main: time 2016-02-05_21:42:26 on domain   3:     .27553 elapsed seconds
Timing for main: time 2016-02-05_21:42:40 on domain   3:     .28636 elapsed seconds
Timing for main: time 2016-02-05_21:42:20 on domain   4:     .34582 elapsed seconds
Timing for main: time 2016-02-05_21:42:40 on domain   4:     .32419 elapsed seconds
Timing for main: time 2016-02-05_21:42:40 on domain   2:    2.48083 elapsed seconds
Timing for main: time 2016-02-05_21:42:53 on domain   3:     .28918 elapsed seconds
Timing for main: time 2016-02-05_21:43:06 on domain   3:     .27392 elapsed seconds
Timing for main: time 2016-02-05_21:43:20 on domain   3:     .27378 elapsed seconds
Timing for main: time 2016-02-05_21:43:00 on domain   4:     .35989 elapsed seconds
Timing for main: time 2016-02-05_21:43:20 on domain   4:     .32453 elapsed seconds
Timing for main: time 2016-02-05_21:43:20 on domain   2:    2.45584 elapsed seconds
Timing for main: time 2016-02-05_21:43:33 on domain   3:     .28862 elapsed seconds
Timing for main: time 2016-02-05_21:43:46 on domain   3:     .27420 elapsed seconds
Timing for main: time 2016-02-05_21:44:00 on domain   3:     .27229 elapsed seconds
Timing for main: time 2016-02-05_21:43:40 on domain   4:     .34326 elapsed seconds
Timing for main: time 2016-02-05_21:44:00 on domain   4:     .42584 elapsed seconds
Timing for main: time 2016-02-05_21:44:00 on domain   2:    2.53720 elapsed seconds
Timing for main: time 2016-02-05_21:44:00 on domain   1:    7.96097 elapsed seconds
Timing for main: time 2016-02-05_21:44:13 on domain   3:     .28861 elapsed seconds
Timing for main: time 2016-02-05_21:44:26 on domain   3:     .27402 elapsed seconds
Timing for main: time 2016-02-05_21:44:40 on domain   3:     .27284 elapsed seconds
Timing for main: time 2016-02-05_21:44:20 on domain   4:     .34302 elapsed seconds
Timing for main: time 2016-02-05_21:44:40 on domain   4:     .32408 elapsed seconds
Timing for main: time 2016-02-05_21:44:40 on domain   2:    2.45498 elapsed seconds
Timing for main: time 2016-02-05_21:44:53 on domain   3:     .28890 elapsed seconds
Timing for main: time 2016-02-05_21:45:06 on domain   3:     .27364 elapsed seconds
Timing for main: time 2016-02-05_21:45:20 on domain   3:     .27381 elapsed seconds
Timing for main: time 2016-02-05_21:45:00 on domain   4:     .35937 elapsed seconds
Timing for main: time 2016-02-05_21:45:20 on domain   4:     .32359 elapsed seconds
Timing for main: time 2016-02-05_21:45:20 on domain   2:    2.45377 elapsed seconds
Timing for main: time 2016-02-05_21:45:33 on domain   3:     .28874 elapsed seconds
Timing for main: time 2016-02-05_21:45:46 on domain   3:     .27391 elapsed seconds
Timing for main: time 2016-02-05_21:46:00 on domain   3:     .27412 elapsed seconds
Timing for main: time 2016-02-05_21:45:40 on domain   4:     .34282 elapsed seconds
Timing for main: time 2016-02-05_21:46:00 on domain   4:     .32309 elapsed seconds
Timing for main: time 2016-02-05_21:46:00 on domain   2:    2.43499 elapsed seconds
Timing for main: time 2016-02-05_21:46:00 on domain   1:    7.82991 elapsed seconds
Timing for main: time 2016-02-05_21:46:13 on domain   3:     .28837 elapsed seconds
Timing for main: time 2016-02-05_21:46:26 on domain   3:     .27389 elapsed seconds
Timing for main: time 2016-02-05_21:46:40 on domain   3:     .27347 elapsed seconds
Timing for main: time 2016-02-05_21:46:20 on domain   4:     .34282 elapsed seconds
Timing for main: time 2016-02-05_21:46:40 on domain   4:     .32544 elapsed seconds
Timing for main: time 2016-02-05_21:46:40 on domain   2:    2.47177 elapsed seconds
Timing for main: time 2016-02-05_21:46:53 on domain   3:     .28875 elapsed seconds
Timing for main: time 2016-02-05_21:47:06 on domain   3:     .27333 elapsed seconds
Timing for main: time 2016-02-05_21:47:20 on domain   3:     .27392 elapsed seconds
Timing for main: time 2016-02-05_21:47:00 on domain   4:     .34522 elapsed seconds
Timing for main: time 2016-02-05_21:47:20 on domain   4:     .32332 elapsed seconds
Timing for main: time 2016-02-05_21:47:20 on domain   2:    2.43730 elapsed seconds
Timing for main: time 2016-02-05_21:47:33 on domain   3:     .35830 elapsed seconds
Timing for main: time 2016-02-05_21:47:46 on domain   3:     .29152 elapsed seconds
Timing for main: time 2016-02-05_21:48:00 on domain   3:     .27445 elapsed seconds
Timing for main: time 2016-02-05_21:47:40 on domain   4:     .34232 elapsed seconds
Timing for main: time 2016-02-05_21:48:00 on domain   4:     .32541 elapsed seconds
Timing for main: time 2016-02-05_21:48:00 on domain   2:    2.52602 elapsed seconds
Timing for main: time 2016-02-05_21:48:00 on domain   1:    7.93833 elapsed seconds
Timing for main: time 2016-02-05_21:48:13 on domain   3:     .28961 elapsed seconds
Timing for main: time 2016-02-05_21:48:26 on domain   3:     .27358 elapsed seconds
Timing for main: time 2016-02-05_21:48:40 on domain   3:     .27302 elapsed seconds
Timing for main: time 2016-02-05_21:48:20 on domain   4:     .34677 elapsed seconds
Timing for main: time 2016-02-05_21:48:40 on domain   4:     .32429 elapsed seconds
Timing for main: time 2016-02-05_21:48:40 on domain   2:    2.45989 elapsed seconds
Timing for main: time 2016-02-05_21:48:53 on domain   3:     .28927 elapsed seconds
Timing for main: time 2016-02-05_21:49:06 on domain   3:     .34282 elapsed seconds
Timing for main: time 2016-02-05_21:49:20 on domain   3:     .28874 elapsed seconds
Timing for main: time 2016-02-05_21:49:00 on domain   4:     .34290 elapsed seconds
Timing for main: time 2016-02-05_21:49:20 on domain   4:     .32370 elapsed seconds
Timing for main: time 2016-02-05_21:49:20 on domain   2:    2.52204 elapsed seconds
Timing for main: time 2016-02-05_21:49:33 on domain   3:     .28910 elapsed seconds
Timing for main: time 2016-02-05_21:49:46 on domain   3:     .27329 elapsed seconds
Timing for main: time 2016-02-05_21:50:00 on domain   3:     .27367 elapsed seconds
Timing for main: time 2016-02-05_21:49:40 on domain   4:     .34374 elapsed seconds
Timing for main: time 2016-02-05_21:50:00 on domain   4:     .33898 elapsed seconds
Timing for main: time 2016-02-05_21:50:00 on domain   2:    2.45195 elapsed seconds
Timing for main: time 2016-02-05_21:50:00 on domain   1:    7.92088 elapsed seconds
Timing for main: time 2016-02-05_21:50:13 on domain   3:     .28810 elapsed seconds
Timing for main: time 2016-02-05_21:50:26 on domain   3:     .27338 elapsed seconds
Timing for main: time 2016-02-05_21:50:40 on domain   3:     .27393 elapsed seconds
Timing for main: time 2016-02-05_21:50:20 on domain   4:     .34243 elapsed seconds
Timing for main: time 2016-02-05_21:50:40 on domain   4:     .32359 elapsed seconds
Timing for main: time 2016-02-05_21:50:40 on domain   2:    2.45371 elapsed seconds
Timing for main: time 2016-02-05_21:50:53 on domain   3:     .29025 elapsed seconds
Timing for main: time 2016-02-05_21:51:06 on domain   3:     .27261 elapsed seconds
Timing for main: time 2016-02-05_21:51:20 on domain   3:     .27396 elapsed seconds
Timing for main: time 2016-02-05_21:51:00 on domain   4:     .34403 elapsed seconds
Timing for main: time 2016-02-05_21:51:20 on domain   4:     .32448 elapsed seconds
Timing for main: time 2016-02-05_21:51:20 on domain   2:    2.43912 elapsed seconds
Timing for main: time 2016-02-05_21:51:33 on domain   3:     .28789 elapsed seconds
Timing for main: time 2016-02-05_21:51:46 on domain   3:     .27375 elapsed seconds
Timing for main: time 2016-02-05_21:52:00 on domain   3:     .27359 elapsed seconds
Timing for main: time 2016-02-05_21:51:40 on domain   4:     .33962 elapsed seconds
Timing for main: time 2016-02-05_21:52:00 on domain   4:     .32371 elapsed seconds
Timing for main: time 2016-02-05_21:52:00 on domain   2:    2.45180 elapsed seconds
Timing for main: time 2016-02-05_21:52:00 on domain   1:    7.83147 elapsed seconds
Timing for main: time 2016-02-05_21:52:13 on domain   3:     .28916 elapsed seconds
Timing for main: time 2016-02-05_21:52:26 on domain   3:     .27318 elapsed seconds
Timing for main: time 2016-02-05_21:52:40 on domain   3:     .27413 elapsed seconds
Timing for main: time 2016-02-05_21:52:20 on domain   4:     .34234 elapsed seconds
Timing for main: time 2016-02-05_21:52:40 on domain   4:     .32358 elapsed seconds
Timing for main: time 2016-02-05_21:52:40 on domain   2:    2.45384 elapsed seconds
Timing for main: time 2016-02-05_21:52:53 on domain   3:     .30122 elapsed seconds
Timing for main: time 2016-02-05_21:53:06 on domain   3:     .27396 elapsed seconds
Timing for main: time 2016-02-05_21:53:20 on domain   3:     .27399 elapsed seconds
Timing for main: time 2016-02-05_21:53:00 on domain   4:     .34284 elapsed seconds
Timing for main: time 2016-02-05_21:53:20 on domain   4:     .32314 elapsed seconds
Timing for main: time 2016-02-05_21:53:20 on domain   2:    2.44951 elapsed seconds
Timing for main: time 2016-02-05_21:53:33 on domain   3:     .28829 elapsed seconds
Timing for main: time 2016-02-05_21:53:46 on domain   3:     .27444 elapsed seconds
Timing for main: time 2016-02-05_21:54:00 on domain   3:     .27381 elapsed seconds
Timing for main: time 2016-02-05_21:53:40 on domain   4:     .34606 elapsed seconds
Timing for main: time 2016-02-05_21:54:00 on domain   4:     .32364 elapsed seconds
Timing for main: time 2016-02-05_21:54:00 on domain   2:    2.44038 elapsed seconds
Timing for main: time 2016-02-05_21:54:00 on domain   1:    7.84744 elapsed seconds
Timing for main: time 2016-02-05_21:54:13 on domain   3:     .29001 elapsed seconds
Timing for main: time 2016-02-05_21:54:26 on domain   3:     .27327 elapsed seconds
Timing for main: time 2016-02-05_21:54:40 on domain   3:     .27383 elapsed seconds
Timing for main: time 2016-02-05_21:54:20 on domain   4:     .34288 elapsed seconds
Timing for main: time 2016-02-05_21:54:40 on domain   4:     .32341 elapsed seconds
Timing for main: time 2016-02-05_21:54:40 on domain   2:    2.45499 elapsed seconds
Timing for main: time 2016-02-05_21:54:53 on domain   3:     .28822 elapsed seconds
Timing for main: time 2016-02-05_21:55:06 on domain   3:     .27331 elapsed seconds
Timing for main: time 2016-02-05_21:55:20 on domain   3:     .27564 elapsed seconds
Timing for main: time 2016-02-05_21:55:00 on domain   4:     .36097 elapsed seconds
Timing for main: time 2016-02-05_21:55:20 on domain   4:     .32643 elapsed seconds
Timing for main: time 2016-02-05_21:55:20 on domain   2:    2.45832 elapsed seconds
Timing for main: time 2016-02-05_21:55:33 on domain   3:     .28796 elapsed seconds
Timing for main: time 2016-02-05_21:55:46 on domain   3:     .27410 elapsed seconds
Timing for main: time 2016-02-05_21:56:00 on domain   3:     .27365 elapsed seconds
Timing for main: time 2016-02-05_21:55:40 on domain   4:     .34439 elapsed seconds
Timing for main: time 2016-02-05_21:56:00 on domain   4:     .32370 elapsed seconds
Timing for main: time 2016-02-05_21:56:00 on domain   2:    2.43782 elapsed seconds
Timing for main: time 2016-02-05_21:56:00 on domain   1:    7.83935 elapsed seconds
Timing for main: time 2016-02-05_21:56:13 on domain   3:     .28851 elapsed seconds
Timing for main: time 2016-02-05_21:56:26 on domain   3:     .27402 elapsed seconds
Timing for main: time 2016-02-05_21:56:40 on domain   3:     .27366 elapsed seconds
Timing for main: time 2016-02-05_21:56:20 on domain   4:     .34258 elapsed seconds
Timing for main: time 2016-02-05_21:56:40 on domain   4:     .32356 elapsed seconds
Timing for main: time 2016-02-05_21:56:40 on domain   2:    2.45882 elapsed seconds
Timing for main: time 2016-02-05_21:56:53 on domain   3:     .28573 elapsed seconds
Timing for main: time 2016-02-05_21:57:06 on domain   3:     .27370 elapsed seconds
Timing for main: time 2016-02-05_21:57:20 on domain   3:     .27347 elapsed seconds
Timing for main: time 2016-02-05_21:57:00 on domain   4:     .34386 elapsed seconds
Timing for main: time 2016-02-05_21:57:20 on domain   4:     .32372 elapsed seconds
Timing for main: time 2016-02-05_21:57:20 on domain   2:    2.45246 elapsed seconds
Timing for main: time 2016-02-05_21:57:33 on domain   3:     .28863 elapsed seconds
Timing for main: time 2016-02-05_21:57:46 on domain   3:     .27545 elapsed seconds
Timing for main: time 2016-02-05_21:58:00 on domain   3:     .28644 elapsed seconds
Timing for main: time 2016-02-05_21:57:40 on domain   4:     .34234 elapsed seconds
Timing for main: time 2016-02-05_21:58:00 on domain   4:     .32482 elapsed seconds
Timing for main: time 2016-02-05_21:58:00 on domain   2:    2.45959 elapsed seconds
Timing for main: time 2016-02-05_21:58:00 on domain   1:    7.85787 elapsed seconds
  photolysis_driver: called for domain  1
Timing for main: time 2016-02-05_21:58:13 on domain   3:     .28649 elapsed seconds
Timing for main: time 2016-02-05_21:58:26 on domain   3:     .35176 elapsed seconds
Timing for main: time 2016-02-05_21:58:40 on domain   3:     .27361 elapsed seconds
Timing for main: time 2016-02-05_21:58:20 on domain   4:     .35603 elapsed seconds
Timing for main: time 2016-02-05_21:58:40 on domain   4:     .41712 elapsed seconds
Timing for main: time 2016-02-05_21:58:40 on domain   2:    2.63627 elapsed seconds
Timing for main: time 2016-02-05_21:58:53 on domain   3:     .28830 elapsed seconds
Timing for main: time 2016-02-05_21:59:06 on domain   3:     .27439 elapsed seconds
Timing for main: time 2016-02-05_21:59:20 on domain   3:     .27405 elapsed seconds
Timing for main: time 2016-02-05_21:59:00 on domain   4:     .34195 elapsed seconds
Timing for main: time 2016-02-05_21:59:20 on domain   4:     .32397 elapsed seconds
Timing for main: time 2016-02-05_21:59:20 on domain   2:    2.43639 elapsed seconds
  photolysis_driver: called for domain  2
Timing for main: time 2016-02-05_21:59:33 on domain   3:     .29060 elapsed seconds
Timing for main: time 2016-02-05_21:59:46 on domain   3:     .27558 elapsed seconds
  photolysis_driver: called for domain  3
Timing for main: time 2016-02-05_22:00:00 on domain   3:    1.65934 elapsed seconds
Timing for Writing wrfout_d03_2016-02-05_22:00:00 for domain        3:    1.64077 elapsed seconds
Timing for main: time 2016-02-05_21:59:40 on domain   4:     .36599 elapsed seconds
  photolysis_driver: called for domain  4
Timing for main: time 2016-02-05_22:00:00 on domain   4:    1.94187 elapsed seconds
Timing for Writing wrfout_d04_2016-02-05_22:00:00 for domain        4:    1.87353 elapsed seconds
Timing for main: time 2016-02-05_22:00:00 on domain   2:   10.97146 elapsed seconds
Timing for Writing wrfout_d02_2016-02-05_22:00:00 for domain        2:    3.12493 elapsed seconds
Timing for main: time 2016-02-05_22:00:00 on domain   1:   20.73902 elapsed seconds
Timing for Writing wrfout_d01_2016-02-05_22:00:00 for domain        1:    2.80491 elapsed seconds
 d01 2016-02-05_22:00:00 wrf: SUCCESS COMPLETE WRF
