taskid: 0 hostname: p10a51.pbm.ihost.com
  Ntasks in X  10 , ntasks in Y  20
 Setting blank km_opt entries to domain #1 values.
  --> The km_opt entry in the namelist.input is now max_domains.
 Setting blank diff_opt entries to domain #1 values.
  --> The diff_opt entry in the namelist.input is now max_domains.
 --- WARNING: traj_opt is zero, but num_traj is not zero; setting num_traj to zero.
 --- NOTE: hypsometric_opt is 2, setting adjust_heights = F
 --- NOTE: sst_update is 0, setting io_form_auxinput4 = 0 and auxinput4_interval = 0 for all domains
 --- NOTE: sst_update is 0, setting io_form_auxinput4 = 0 and auxinput4_interval = 0 for all domains
 --- NOTE: sst_update is 0, setting io_form_auxinput4 = 0 and auxinput4_interval = 0 for all domains
 --- NOTE: sst_update is 0, setting io_form_auxinput4 = 0 and auxinput4_interval = 0 for all domains
 --- NOTE: grid_fdda is 0 for domain      1, setting gfdda interval and ending time to 0 for that domain.
 --- NOTE: both grid_sfdda and pxlsm_soil_nudge are 0 for domain      1, setting sgfdda interval and ending time to 0 for that domain.
 --- NOTE: obs_nudge_opt is 0 for domain      1, setting obs nudging interval and ending time to 0 for that domain.
 --- NOTE: grid_fdda is 0 for domain      2, setting gfdda interval and ending time to 0 for that domain.
 --- NOTE: both grid_sfdda and pxlsm_soil_nudge are 0 for domain      2, setting sgfdda interval and ending time to 0 for that domain.
 --- NOTE: obs_nudge_opt is 0 for domain      2, setting obs nudging interval and ending time to 0 for that domain.
 --- NOTE: grid_fdda is 0 for domain      3, setting gfdda interval and ending time to 0 for that domain.
 --- NOTE: both grid_sfdda and pxlsm_soil_nudge are 0 for domain      3, setting sgfdda interval and ending time to 0 for that domain.
 --- NOTE: obs_nudge_opt is 0 for domain      3, setting obs nudging interval and ending time to 0 for that domain.
 --- NOTE: grid_fdda is 0 for domain      4, setting gfdda interval and ending time to 0 for that domain.
 --- NOTE: both grid_sfdda and pxlsm_soil_nudge are 0 for domain      4, setting sgfdda interval and ending time to 0 for that domain.
 --- NOTE: obs_nudge_opt is 0 for domain      4, setting obs nudging interval and ending time to 0 for that domain.
 bl_pbl_physics /= 4, implies mfshconv must be 0, resetting
 --- NOTE: num_soil_layers has been set to      4
 WRF V3.6 MODEL
  *************************************
  Parent domain
  ids,ide,jds,jde  1 271 1 181
  ims,ime,jms,jme  -4 34 -4 16
  ips,ipe,jps,jpe  1 27 1 9
  *************************************
 DYNAMICS OPTION: Eulerian Mass Coordinate
    alloc_space_field: domain  1 ,  84056312  bytes allocated
   med_initialdata_input: calling input_input
Timing for processing wrfinput file (stream 0) for domain        1:    3.90874 elapsed seconds
 INPUT LandUse = "USGS"
  LANDUSE TYPE = "USGS" FOUND 33  CATEGORIES 2  SEASONS WATER CATEGORY =  16  SNOW CATEGORY =  24
 INITIALIZE THREE Noah LSM RELATED TABLES
  LANDUSE TYPE = USGS FOUND 27  CATEGORIES
  INPUT SOIL TEXTURE CLASSIFICATION = STAS
  SOIL TEXTURE CLASSIFICATION = STAS FOUND 19  CATEGORIES
 *********************************************************************
 *             PROGRAM:WRF/CHEM V3.6 MODEL
 *                                                                   *
 *    PLEASE REPORT ANY BUGS TO WRF/CHEM HELP at                     *
 *                                                                   *
 *              wrfchemhelp.gsd@noaa.gov                             *
 *                                                                   *
 *********************************************************************
 WARNING: dust option 1 currently works only with the GOCART aerosol option.
 WARNING: sea salt option 1 currently works only with the GOCART aerosol option.
  *************************************
  Nesting domain
  ids,ide,jds,jde  1 361 1 253
  ims,ime,jms,jme  -4 48 -4 24
  ips,ipe,jps,jpe  1 36 1 13
  INTERMEDIATE domain
  ids,ide,jds,jde  74 199 47 136
  ims,ime,jms,jme  69 97 42 62
  ips,ipe,jps,jpe  72 87 45 52
  *************************************
 d01 2016-02-05_12:00:00  alloc_space_field: domain  2 ,  153144872  bytes allocated
 d01 2016-02-05_12:00:00  alloc_space_field: domain  2 ,  7670964  bytes allocated
 d01 2016-02-05_12:00:00 *** Initializing nest domain # 2 from an input file. ***
 d01 2016-02-05_12:00:00 med_initialdata_input: calling input_input
Timing for processing wrfinput file (stream 0) for domain        2:    7.17633 elapsed seconds
 INPUT LandUse = "USGS"
  LANDUSE TYPE = "USGS" FOUND 33  CATEGORIES 2  SEASONS WATER CATEGORY =  16  SNOW CATEGORY =  24
 INITIALIZE THREE Noah LSM RELATED TABLES
  LANDUSE TYPE = USGS FOUND 27  CATEGORIES
  INPUT SOIL TEXTURE CLASSIFICATION = STAS
  SOIL TEXTURE CLASSIFICATION = STAS FOUND 19  CATEGORIES
 *********************************************************************
 *             PROGRAM:WRF/CHEM V3.6 MODEL
 *                                                                   *
 *    PLEASE REPORT ANY BUGS TO WRF/CHEM HELP at                     *
 *                                                                   *
 *              wrfchemhelp.gsd@noaa.gov                             *
 *                                                                   *
 *********************************************************************
 WARNING: dust option 1 currently works only with the GOCART aerosol option.
 WARNING: sea salt option 1 currently works only with the GOCART aerosol option.
 INPUT LandUse = "USGS"
  LANDUSE TYPE = "USGS" FOUND 33  CATEGORIES 2  SEASONS WATER CATEGORY =  16  SNOW CATEGORY =  24
 INITIALIZE THREE Noah LSM RELATED TABLES
  LANDUSE TYPE = USGS FOUND 27  CATEGORIES
  INPUT SOIL TEXTURE CLASSIFICATION = STAS
  SOIL TEXTURE CLASSIFICATION = STAS FOUND 19  CATEGORIES
 *********************************************************************
 *             PROGRAM:WRF/CHEM V3.6 MODEL
 *                                                                   *
 *    PLEASE REPORT ANY BUGS TO WRF/CHEM HELP at                     *
 *                                                                   *
 *              wrfchemhelp.gsd@noaa.gov                             *
 *                                                                   *
 *********************************************************************
 WARNING: dust option 1 currently works only with the GOCART aerosol option.
 WARNING: sea salt option 1 currently works only with the GOCART aerosol option.
 INPUT LandUse = "USGS"
  LANDUSE TYPE = "USGS" FOUND 33  CATEGORIES 2  SEASONS WATER CATEGORY =  16  SNOW CATEGORY =  24
 INITIALIZE THREE Noah LSM RELATED TABLES
  LANDUSE TYPE = USGS FOUND 27  CATEGORIES
  INPUT SOIL TEXTURE CLASSIFICATION = STAS
  SOIL TEXTURE CLASSIFICATION = STAS FOUND 19  CATEGORIES
 *********************************************************************
 *             PROGRAM:WRF/CHEM V3.6 MODEL
 *                                                                   *
 *    PLEASE REPORT ANY BUGS TO WRF/CHEM HELP at                     *
 *                                                                   *
 *              wrfchemhelp.gsd@noaa.gov                             *
 *                                                                   *
 *********************************************************************
 WARNING: dust option 1 currently works only with the GOCART aerosol option.
 WARNING: sea salt option 1 currently works only with the GOCART aerosol option.
Timing for Writing wrfout_d01_2016-02-05_12:00:00 for domain        1:    2.22989 elapsed seconds
  mediation_integrate: med_read_wrf_chem_emissions: Open file wrfchemi_12z_d01
  HOURLY EMISSIONS UPDATE TIME         .0        .0
 mediation_integrate: med_read_wrf_chem_emissions: Read emissions for time 2016-02-05_12:00:00
 **WARNING** Time in input file not being checked **WARNING**
Timing for processing lateral boundary for domain        1:    3.24875 elapsed seconds
  Tile Strategy is not specified. Assuming 1D-Y
 WRF TILE   1 IS      1 IE     27 JS      1 JE      9
 WRF NUMBER OF TILES =   1
  photolysis_driver: called for domain  1
  *************************************
  Nesting domain
  ids,ide,jds,jde  1 307 1 241
  ims,ime,jms,jme  -4 42 -4 24
  ips,ipe,jps,jpe  1 31 1 12
  INTERMEDIATE domain
  ids,ide,jds,jde  124 231 35 120
  ims,ime,jms,jme  119 145 30 50
  ips,ipe,jps,jpe  122 135 33 40
  *************************************
 d02 2016-02-05_12:00:00  alloc_space_field: domain  3 ,  136269116  bytes allocated
 d02 2016-02-05_12:00:00  alloc_space_field: domain  3 ,  7141932  bytes allocated
 d02 2016-02-05_12:00:00 *** Initializing nest domain # 3 from an input file. ***
 d02 2016-02-05_12:00:00 med_initialdata_input: calling input_input
Timing for processing wrfinput file (stream 0) for domain        3:    5.08009 elapsed seconds
 INPUT LandUse = "USGS"
  LANDUSE TYPE = "USGS" FOUND 33  CATEGORIES 2  SEASONS WATER CATEGORY =  16  SNOW CATEGORY =  24
 INITIALIZE THREE Noah LSM RELATED TABLES
  LANDUSE TYPE = USGS FOUND 27  CATEGORIES
  INPUT SOIL TEXTURE CLASSIFICATION = STAS
  SOIL TEXTURE CLASSIFICATION = STAS FOUND 19  CATEGORIES
 *********************************************************************
 *             PROGRAM:WRF/CHEM V3.6 MODEL
 *                                                                   *
 *    PLEASE REPORT ANY BUGS TO WRF/CHEM HELP at                     *
 *                                                                   *
 *              wrfchemhelp.gsd@noaa.gov                             *
 *                                                                   *
 *********************************************************************
 WARNING: dust option 1 currently works only with the GOCART aerosol option.
 WARNING: sea salt option 1 currently works only with the GOCART aerosol option.
 INPUT LandUse = "USGS"
  LANDUSE TYPE = "USGS" FOUND 33  CATEGORIES 2  SEASONS WATER CATEGORY =  16  SNOW CATEGORY =  24
 INITIALIZE THREE Noah LSM RELATED TABLES
  LANDUSE TYPE = USGS FOUND 27  CATEGORIES
  INPUT SOIL TEXTURE CLASSIFICATION = STAS
  SOIL TEXTURE CLASSIFICATION = STAS FOUND 19  CATEGORIES
 *********************************************************************
 *             PROGRAM:WRF/CHEM V3.6 MODEL
 *                                                                   *
 *    PLEASE REPORT ANY BUGS TO WRF/CHEM HELP at                     *
 *                                                                   *
 *              wrfchemhelp.gsd@noaa.gov                             *
 *                                                                   *
 *********************************************************************
 WARNING: dust option 1 currently works only with the GOCART aerosol option.
 WARNING: sea salt option 1 currently works only with the GOCART aerosol option.
 INPUT LandUse = "USGS"
  LANDUSE TYPE = "USGS" FOUND 33  CATEGORIES 2  SEASONS WATER CATEGORY =  16  SNOW CATEGORY =  24
 INITIALIZE THREE Noah LSM RELATED TABLES
  LANDUSE TYPE = USGS FOUND 27  CATEGORIES
  INPUT SOIL TEXTURE CLASSIFICATION = STAS
  SOIL TEXTURE CLASSIFICATION = STAS FOUND 19  CATEGORIES
 *********************************************************************
 *             PROGRAM:WRF/CHEM V3.6 MODEL
 *                                                                   *
 *    PLEASE REPORT ANY BUGS TO WRF/CHEM HELP at                     *
 *                                                                   *
 *              wrfchemhelp.gsd@noaa.gov                             *
 *                                                                   *
 *********************************************************************
 WARNING: dust option 1 currently works only with the GOCART aerosol option.
 WARNING: sea salt option 1 currently works only with the GOCART aerosol option.
  *************************************
  Nesting domain
  ids,ide,jds,jde  1 217 1 388
  ims,ime,jms,jme  -4 33 -4 30
  ips,ipe,jps,jpe  1 22 1 20
  INTERMEDIATE domain
  ids,ide,jds,jde  225 302 83 217
  ims,ime,jms,jme  220 243 78 101
  ips,ipe,jps,jpe  223 233 81 91
  *************************************
 d02 2016-02-05_12:00:00  alloc_space_field: domain  4 ,  132919064  bytes allocated
 d02 2016-02-05_12:00:00 *** Initializing nest domain # 4 from an input file. ***
 d02 2016-02-05_12:00:00 med_initialdata_input: calling input_input
Timing for processing wrfinput file (stream 0) for domain        4:    7.02280 elapsed seconds
 INPUT LandUse = "USGS"
  LANDUSE TYPE = "USGS" FOUND 33  CATEGORIES 2  SEASONS WATER CATEGORY =  16  SNOW CATEGORY =  24
 INITIALIZE THREE Noah LSM RELATED TABLES
  LANDUSE TYPE = USGS FOUND 27  CATEGORIES
  INPUT SOIL TEXTURE CLASSIFICATION = STAS
  SOIL TEXTURE CLASSIFICATION = STAS FOUND 19  CATEGORIES
 *********************************************************************
 *             PROGRAM:WRF/CHEM V3.6 MODEL
 *                                                                   *
 *    PLEASE REPORT ANY BUGS TO WRF/CHEM HELP at                     *
 *                                                                   *
 *              wrfchemhelp.gsd@noaa.gov                             *
 *                                                                   *
 *********************************************************************
 WARNING: dust option 1 currently works only with the GOCART aerosol option.
 WARNING: sea salt option 1 currently works only with the GOCART aerosol option.
 INPUT LandUse = "USGS"
  LANDUSE TYPE = "USGS" FOUND 33  CATEGORIES 2  SEASONS WATER CATEGORY =  16  SNOW CATEGORY =  24
 INITIALIZE THREE Noah LSM RELATED TABLES
  LANDUSE TYPE = USGS FOUND 27  CATEGORIES
  INPUT SOIL TEXTURE CLASSIFICATION = STAS
  SOIL TEXTURE CLASSIFICATION = STAS FOUND 19  CATEGORIES
 *********************************************************************
 *             PROGRAM:WRF/CHEM V3.6 MODEL
 *                                                                   *
 *    PLEASE REPORT ANY BUGS TO WRF/CHEM HELP at                     *
 *                                                                   *
 *              wrfchemhelp.gsd@noaa.gov                             *
 *                                                                   *
 *********************************************************************
 WARNING: dust option 1 currently works only with the GOCART aerosol option.
 WARNING: sea salt option 1 currently works only with the GOCART aerosol option.
 INPUT LandUse = "USGS"
  LANDUSE TYPE = "USGS" FOUND 33  CATEGORIES 2  SEASONS WATER CATEGORY =  16  SNOW CATEGORY =  24
 INITIALIZE THREE Noah LSM RELATED TABLES
  LANDUSE TYPE = USGS FOUND 27  CATEGORIES
  INPUT SOIL TEXTURE CLASSIFICATION = STAS
  SOIL TEXTURE CLASSIFICATION = STAS FOUND 19  CATEGORIES
 *********************************************************************
 *             PROGRAM:WRF/CHEM V3.6 MODEL
 *                                                                   *
 *    PLEASE REPORT ANY BUGS TO WRF/CHEM HELP at                     *
 *                                                                   *
 *              wrfchemhelp.gsd@noaa.gov                             *
 *                                                                   *
 *********************************************************************
 WARNING: dust option 1 currently works only with the GOCART aerosol option.
 WARNING: sea salt option 1 currently works only with the GOCART aerosol option.
Timing for Writing wrfout_d02_2016-02-05_12:00:00 for domain        2:    2.13640 elapsed seconds
  mediation_integrate: med_read_wrf_chem_emissions: Open file wrfchemi_12z_d02
  HOURLY EMISSIONS UPDATE TIME         .0        .0
 mediation_integrate: med_read_wrf_chem_emissions: Read emissions for time 2016-02-05_12:00:00
 **WARNING** Time in input file not being checked **WARNING**
  Tile Strategy is not specified. Assuming 1D-Y
 WRF TILE   1 IS      1 IE     36 JS      1 JE     13
 WRF NUMBER OF TILES =   1
  photolysis_driver: called for domain  2
Timing for Writing wrfout_d03_2016-02-05_12:00:00 for domain        3:    1.89211 elapsed seconds
  mediation_integrate: med_read_wrf_chem_emissions: Open file wrfchemi_12z_d03
  HOURLY EMISSIONS UPDATE TIME         .0        .0
 mediation_integrate: med_read_wrf_chem_emissions: Read emissions for time 2016-02-05_12:00:00
 **WARNING** Time in input file not being checked **WARNING**
  Tile Strategy is not specified. Assuming 1D-Y
 WRF TILE   1 IS      1 IE     31 JS      1 JE     12
 WRF NUMBER OF TILES =   1
  photolysis_driver: called for domain  3
Timing for main: time 2016-02-05_12:00:13 on domain   3:    4.54013 elapsed seconds
Timing for main: time 2016-02-05_12:00:26 on domain   3:     .12265 elapsed seconds
Timing for main: time 2016-02-05_12:00:40 on domain   3:     .14857 elapsed seconds
Timing for Writing wrfout_d04_2016-02-05_12:00:00 for domain        4:    2.04150 elapsed seconds
  mediation_integrate: med_read_wrf_chem_emissions: Open file wrfchemi_12z_d04
  HOURLY EMISSIONS UPDATE TIME         .0        .0
 mediation_integrate: med_read_wrf_chem_emissions: Read emissions for time 2016-02-05_12:00:00
 **WARNING** Time in input file not being checked **WARNING**
  Tile Strategy is not specified. Assuming 1D-Y
 WRF TILE   1 IS      1 IE     22 JS      1 JE     20
 WRF NUMBER OF TILES =   1
  photolysis_driver: called for domain  4
Timing for main: time 2016-02-05_12:00:20 on domain   4:    5.40634 elapsed seconds
Timing for main: time 2016-02-05_12:00:40 on domain   4:     .18256 elapsed seconds
Timing for main: time 2016-02-05_12:00:40 on domain   2:   32.03462 elapsed seconds
Timing for main: time 2016-02-05_12:00:53 on domain   3:     .16791 elapsed seconds
Timing for main: time 2016-02-05_12:01:06 on domain   3:     .15498 elapsed seconds
Timing for main: time 2016-02-05_12:01:20 on domain   3:     .16167 elapsed seconds
Timing for main: time 2016-02-05_12:01:00 on domain   4:     .19176 elapsed seconds
Timing for main: time 2016-02-05_12:01:20 on domain   4:     .18229 elapsed seconds
Timing for main: time 2016-02-05_12:01:20 on domain   2:    1.42824 elapsed seconds
Timing for main: time 2016-02-05_12:01:33 on domain   3:     .16966 elapsed seconds
Timing for main: time 2016-02-05_12:01:46 on domain   3:     .15303 elapsed seconds
Timing for main: time 2016-02-05_12:02:00 on domain   3:     .15330 elapsed seconds
Timing for main: time 2016-02-05_12:01:40 on domain   4:     .23326 elapsed seconds
Timing for main: time 2016-02-05_12:02:00 on domain   4:     .21109 elapsed seconds
Timing for main: time 2016-02-05_12:02:00 on domain   2:    1.52277 elapsed seconds
Timing for main: time 2016-02-05_12:02:00 on domain   1:   52.30209 elapsed seconds
Timing for main: time 2016-02-05_12:02:13 on domain   3:     .16718 elapsed seconds
Timing for main: time 2016-02-05_12:02:26 on domain   3:     .15402 elapsed seconds
Timing for main: time 2016-02-05_12:02:40 on domain   3:     .15280 elapsed seconds
Timing for main: time 2016-02-05_12:02:20 on domain   4:     .22176 elapsed seconds
Timing for main: time 2016-02-05_12:02:40 on domain   4:     .20891 elapsed seconds
Timing for main: time 2016-02-05_12:02:40 on domain   2:    1.51037 elapsed seconds
Timing for main: time 2016-02-05_12:02:53 on domain   3:     .17036 elapsed seconds
Timing for main: time 2016-02-05_12:03:06 on domain   3:     .15077 elapsed seconds
Timing for main: time 2016-02-05_12:03:20 on domain   3:     .15315 elapsed seconds
Timing for main: time 2016-02-05_12:03:00 on domain   4:     .18893 elapsed seconds
Timing for main: time 2016-02-05_12:03:20 on domain   4:     .17614 elapsed seconds
Timing for main: time 2016-02-05_12:03:20 on domain   2:    1.43051 elapsed seconds
Timing for main: time 2016-02-05_12:03:33 on domain   3:     .16238 elapsed seconds
Timing for main: time 2016-02-05_12:03:46 on domain   3:     .15356 elapsed seconds
Timing for main: time 2016-02-05_12:04:00 on domain   3:     .15481 elapsed seconds
Timing for main: time 2016-02-05_12:03:40 on domain   4:     .19078 elapsed seconds
Timing for main: time 2016-02-05_12:04:00 on domain   4:     .17388 elapsed seconds
Timing for main: time 2016-02-05_12:04:00 on domain   2:    1.42579 elapsed seconds
Timing for main: time 2016-02-05_12:04:00 on domain   1:    4.72193 elapsed seconds
Timing for main: time 2016-02-05_12:04:13 on domain   3:     .16023 elapsed seconds
Timing for main: time 2016-02-05_12:04:26 on domain   3:     .14694 elapsed seconds
Timing for main: time 2016-02-05_12:04:40 on domain   3:     .14793 elapsed seconds
Timing for main: time 2016-02-05_12:04:20 on domain   4:     .18446 elapsed seconds
Timing for main: time 2016-02-05_12:04:40 on domain   4:     .17341 elapsed seconds
Timing for main: time 2016-02-05_12:04:40 on domain   2:    1.41069 elapsed seconds
Timing for main: time 2016-02-05_12:04:53 on domain   3:     .16043 elapsed seconds
Timing for main: time 2016-02-05_12:05:06 on domain   3:     .15406 elapsed seconds
Timing for main: time 2016-02-05_12:05:20 on domain   3:     .14703 elapsed seconds
Timing for main: time 2016-02-05_12:05:00 on domain   4:     .19208 elapsed seconds
Timing for main: time 2016-02-05_12:05:20 on domain   4:     .18813 elapsed seconds
Timing for main: time 2016-02-05_12:05:20 on domain   2:    1.43828 elapsed seconds
Timing for main: time 2016-02-05_12:05:33 on domain   3:     .16057 elapsed seconds
Timing for main: time 2016-02-05_12:05:46 on domain   3:     .15030 elapsed seconds
Timing for main: time 2016-02-05_12:06:00 on domain   3:     .14774 elapsed seconds
Timing for main: time 2016-02-05_12:05:40 on domain   4:     .18610 elapsed seconds
Timing for main: time 2016-02-05_12:06:00 on domain   4:     .17560 elapsed seconds
Timing for main: time 2016-02-05_12:06:00 on domain   2:    1.40802 elapsed seconds
Timing for main: time 2016-02-05_12:06:00 on domain   1:    4.57446 elapsed seconds
Timing for main: time 2016-02-05_12:06:13 on domain   3:     .16014 elapsed seconds
Timing for main: time 2016-02-05_12:06:26 on domain   3:     .15116 elapsed seconds
Timing for main: time 2016-02-05_12:06:40 on domain   3:     .15589 elapsed seconds
Timing for main: time 2016-02-05_12:06:20 on domain   4:     .21540 elapsed seconds
Timing for main: time 2016-02-05_12:06:40 on domain   4:     .22505 elapsed seconds
Timing for main: time 2016-02-05_12:06:40 on domain   2:    1.52531 elapsed seconds
Timing for main: time 2016-02-05_12:06:53 on domain   3:     .16073 elapsed seconds
Timing for main: time 2016-02-05_12:07:06 on domain   3:     .14949 elapsed seconds
Timing for main: time 2016-02-05_12:07:20 on domain   3:     .14730 elapsed seconds
Timing for main: time 2016-02-05_12:07:00 on domain   4:     .18519 elapsed seconds
Timing for main: time 2016-02-05_12:07:20 on domain   4:     .17379 elapsed seconds
Timing for main: time 2016-02-05_12:07:20 on domain   2:    1.40545 elapsed seconds
Timing for main: time 2016-02-05_12:07:33 on domain   3:     .16039 elapsed seconds
Timing for main: time 2016-02-05_12:07:46 on domain   3:     .15110 elapsed seconds
Timing for main: time 2016-02-05_12:08:00 on domain   3:     .14863 elapsed seconds
Timing for main: time 2016-02-05_12:07:40 on domain   4:     .18536 elapsed seconds
Timing for main: time 2016-02-05_12:08:00 on domain   4:     .17647 elapsed seconds
Timing for main: time 2016-02-05_12:08:00 on domain   2:    1.41075 elapsed seconds
Timing for main: time 2016-02-05_12:08:00 on domain   1:    4.65216 elapsed seconds
Timing for main: time 2016-02-05_12:08:13 on domain   3:     .16070 elapsed seconds
Timing for main: time 2016-02-05_12:08:26 on domain   3:     .14726 elapsed seconds
Timing for main: time 2016-02-05_12:08:40 on domain   3:     .14713 elapsed seconds
Timing for main: time 2016-02-05_12:08:20 on domain   4:     .18522 elapsed seconds
Timing for main: time 2016-02-05_12:08:40 on domain   4:     .17405 elapsed seconds
Timing for main: time 2016-02-05_12:08:40 on domain   2:    1.41115 elapsed seconds
Timing for main: time 2016-02-05_12:08:53 on domain   3:     .16058 elapsed seconds
Timing for main: time 2016-02-05_12:09:06 on domain   3:     .14970 elapsed seconds
Timing for main: time 2016-02-05_12:09:20 on domain   3:     .14726 elapsed seconds
Timing for main: time 2016-02-05_12:09:00 on domain   4:     .18653 elapsed seconds
Timing for main: time 2016-02-05_12:09:20 on domain   4:     .17589 elapsed seconds
Timing for main: time 2016-02-05_12:09:20 on domain   2:    1.41119 elapsed seconds
Timing for main: time 2016-02-05_12:09:33 on domain   3:     .16005 elapsed seconds
Timing for main: time 2016-02-05_12:09:46 on domain   3:     .14781 elapsed seconds
Timing for main: time 2016-02-05_12:10:00 on domain   3:     .14661 elapsed seconds
Timing for main: time 2016-02-05_12:09:40 on domain   4:     .18499 elapsed seconds
Timing for main: time 2016-02-05_12:10:00 on domain   4:     .18192 elapsed seconds
Timing for main: time 2016-02-05_12:10:00 on domain   2:    1.41027 elapsed seconds
Timing for main: time 2016-02-05_12:10:00 on domain   1:    4.54277 elapsed seconds
Timing for main: time 2016-02-05_12:10:13 on domain   3:     .16697 elapsed seconds
Timing for main: time 2016-02-05_12:10:26 on domain   3:     .14725 elapsed seconds
Timing for main: time 2016-02-05_12:10:40 on domain   3:     .14722 elapsed seconds
Timing for main: time 2016-02-05_12:10:20 on domain   4:     .18487 elapsed seconds
Timing for main: time 2016-02-05_12:10:40 on domain   4:     .17830 elapsed seconds
Timing for main: time 2016-02-05_12:10:40 on domain   2:    1.43012 elapsed seconds
Timing for main: time 2016-02-05_12:10:53 on domain   3:     .16039 elapsed seconds
Timing for main: time 2016-02-05_12:11:06 on domain   3:     .14723 elapsed seconds
Timing for main: time 2016-02-05_12:11:20 on domain   3:     .14803 elapsed seconds
Timing for main: time 2016-02-05_12:11:00 on domain   4:     .18595 elapsed seconds
Timing for main: time 2016-02-05_12:11:20 on domain   4:     .17452 elapsed seconds
Timing for main: time 2016-02-05_12:11:20 on domain   2:    1.40569 elapsed seconds
Timing for main: time 2016-02-05_12:11:33 on domain   3:     .16049 elapsed seconds
Timing for main: time 2016-02-05_12:11:46 on domain   3:     .19666 elapsed seconds
Timing for main: time 2016-02-05_12:12:00 on domain   3:     .17160 elapsed seconds
Timing for main: time 2016-02-05_12:11:40 on domain   4:     .18489 elapsed seconds
Timing for main: time 2016-02-05_12:12:00 on domain   4:     .17406 elapsed seconds
Timing for main: time 2016-02-05_12:12:00 on domain   2:    1.47155 elapsed seconds
Timing for main: time 2016-02-05_12:12:00 on domain   1:    4.62489 elapsed seconds
Timing for main: time 2016-02-05_12:12:13 on domain   3:     .16083 elapsed seconds
Timing for main: time 2016-02-05_12:12:26 on domain   3:     .14850 elapsed seconds
Timing for main: time 2016-02-05_12:12:40 on domain   3:     .14569 elapsed seconds
Timing for main: time 2016-02-05_12:12:20 on domain   4:     .18502 elapsed seconds
Timing for main: time 2016-02-05_12:12:40 on domain   4:     .17427 elapsed seconds
Timing for main: time 2016-02-05_12:12:40 on domain   2:    1.41316 elapsed seconds
Timing for main: time 2016-02-05_12:12:53 on domain   3:     .16051 elapsed seconds
Timing for main: time 2016-02-05_12:13:06 on domain   3:     .14737 elapsed seconds
Timing for main: time 2016-02-05_12:13:20 on domain   3:     .14731 elapsed seconds
Timing for main: time 2016-02-05_12:13:00 on domain   4:     .18519 elapsed seconds
Timing for main: time 2016-02-05_12:13:20 on domain   4:     .17450 elapsed seconds
Timing for main: time 2016-02-05_12:13:20 on domain   2:    1.40538 elapsed seconds
Timing for main: time 2016-02-05_12:13:33 on domain   3:     .16212 elapsed seconds
Timing for main: time 2016-02-05_12:13:46 on domain   3:     .14664 elapsed seconds
Timing for main: time 2016-02-05_12:14:00 on domain   3:     .14690 elapsed seconds
Timing for main: time 2016-02-05_12:13:40 on domain   4:     .18395 elapsed seconds
Timing for main: time 2016-02-05_12:14:00 on domain   4:     .17411 elapsed seconds
Timing for main: time 2016-02-05_12:14:00 on domain   2:    1.40637 elapsed seconds
Timing for main: time 2016-02-05_12:14:00 on domain   1:    4.53566 elapsed seconds
Timing for main: time 2016-02-05_12:14:13 on domain   3:     .16063 elapsed seconds
Timing for main: time 2016-02-05_12:14:26 on domain   3:     .14721 elapsed seconds
Timing for main: time 2016-02-05_12:14:40 on domain   3:     .14697 elapsed seconds
Timing for main: time 2016-02-05_12:14:20 on domain   4:     .18483 elapsed seconds
Timing for main: time 2016-02-05_12:14:40 on domain   4:     .17444 elapsed seconds
Timing for main: time 2016-02-05_12:14:40 on domain   2:    1.41120 elapsed seconds
Timing for main: time 2016-02-05_12:14:53 on domain   3:     .16055 elapsed seconds
Timing for main: time 2016-02-05_12:15:06 on domain   3:     .14667 elapsed seconds
Timing for main: time 2016-02-05_12:15:20 on domain   3:     .15585 elapsed seconds
Timing for main: time 2016-02-05_12:15:00 on domain   4:     .20021 elapsed seconds
Timing for main: time 2016-02-05_12:15:20 on domain   4:     .17523 elapsed seconds
Timing for main: time 2016-02-05_12:15:20 on domain   2:    1.42795 elapsed seconds
Timing for main: time 2016-02-05_12:15:33 on domain   3:     .16066 elapsed seconds
Timing for main: time 2016-02-05_12:15:46 on domain   3:     .14717 elapsed seconds
Timing for main: time 2016-02-05_12:16:00 on domain   3:     .14708 elapsed seconds
Timing for main: time 2016-02-05_12:15:40 on domain   4:     .18475 elapsed seconds
Timing for main: time 2016-02-05_12:16:00 on domain   4:     .19384 elapsed seconds
Timing for main: time 2016-02-05_12:16:00 on domain   2:    1.47270 elapsed seconds
Timing for main: time 2016-02-05_12:16:00 on domain   1:    4.62345 elapsed seconds
Timing for main: time 2016-02-05_12:16:13 on domain   3:     .16003 elapsed seconds
Timing for main: time 2016-02-05_12:16:26 on domain   3:     .15110 elapsed seconds
Timing for main: time 2016-02-05_12:16:40 on domain   3:     .14773 elapsed seconds
Timing for main: time 2016-02-05_12:16:20 on domain   4:     .18580 elapsed seconds
Timing for main: time 2016-02-05_12:16:40 on domain   4:     .17477 elapsed seconds
Timing for main: time 2016-02-05_12:16:40 on domain   2:    1.41600 elapsed seconds
Timing for main: time 2016-02-05_12:16:53 on domain   3:     .16194 elapsed seconds
Timing for main: time 2016-02-05_12:17:06 on domain   3:     .14698 elapsed seconds
Timing for main: time 2016-02-05_12:17:20 on domain   3:     .14735 elapsed seconds
Timing for main: time 2016-02-05_12:17:00 on domain   4:     .18507 elapsed seconds
Timing for main: time 2016-02-05_12:17:20 on domain   4:     .17437 elapsed seconds
Timing for main: time 2016-02-05_12:17:20 on domain   2:    1.40671 elapsed seconds
Timing for main: time 2016-02-05_12:17:33 on domain   3:     .16082 elapsed seconds
Timing for main: time 2016-02-05_12:17:46 on domain   3:     .14674 elapsed seconds
Timing for main: time 2016-02-05_12:18:00 on domain   3:     .14991 elapsed seconds
Timing for main: time 2016-02-05_12:17:40 on domain   4:     .18500 elapsed seconds
Timing for main: time 2016-02-05_12:18:00 on domain   4:     .17469 elapsed seconds
Timing for main: time 2016-02-05_12:18:00 on domain   2:    1.40875 elapsed seconds
Timing for main: time 2016-02-05_12:18:00 on domain   1:    4.54944 elapsed seconds
Timing for main: time 2016-02-05_12:18:13 on domain   3:     .16034 elapsed seconds
Timing for main: time 2016-02-05_12:18:26 on domain   3:     .14709 elapsed seconds
Timing for main: time 2016-02-05_12:18:40 on domain   3:     .15893 elapsed seconds
Timing for main: time 2016-02-05_12:18:20 on domain   4:     .18526 elapsed seconds
Timing for main: time 2016-02-05_12:18:40 on domain   4:     .17405 elapsed seconds
Timing for main: time 2016-02-05_12:18:40 on domain   2:    1.42619 elapsed seconds
Timing for main: time 2016-02-05_12:18:53 on domain   3:     .16019 elapsed seconds
Timing for main: time 2016-02-05_12:19:06 on domain   3:     .15098 elapsed seconds
Timing for main: time 2016-02-05_12:19:20 on domain   3:     .15598 elapsed seconds
Timing for main: time 2016-02-05_12:19:00 on domain   4:     .21332 elapsed seconds
Timing for main: time 2016-02-05_12:19:20 on domain   4:     .17870 elapsed seconds
Timing for main: time 2016-02-05_12:19:20 on domain   2:    1.44885 elapsed seconds
Timing for main: time 2016-02-05_12:19:33 on domain   3:     .16201 elapsed seconds
Timing for main: time 2016-02-05_12:19:46 on domain   3:     .14721 elapsed seconds
Timing for main: time 2016-02-05_12:20:00 on domain   3:     .14734 elapsed seconds
Timing for main: time 2016-02-05_12:19:40 on domain   4:     .18481 elapsed seconds
Timing for main: time 2016-02-05_12:20:00 on domain   4:     .18207 elapsed seconds
Timing for main: time 2016-02-05_12:20:00 on domain   2:    1.41301 elapsed seconds
Timing for main: time 2016-02-05_12:20:00 on domain   1:    4.59933 elapsed seconds
Timing for main: time 2016-02-05_12:20:13 on domain   3:     .16201 elapsed seconds
Timing for main: time 2016-02-05_12:20:26 on domain   3:     .15364 elapsed seconds
Timing for main: time 2016-02-05_12:20:40 on domain   3:     .14755 elapsed seconds
Timing for main: time 2016-02-05_12:20:20 on domain   4:     .18468 elapsed seconds
Timing for main: time 2016-02-05_12:20:40 on domain   4:     .17406 elapsed seconds
Timing for main: time 2016-02-05_12:20:40 on domain   2:    1.41874 elapsed seconds
Timing for main: time 2016-02-05_12:20:53 on domain   3:     .15991 elapsed seconds
Timing for main: time 2016-02-05_12:21:06 on domain   3:     .14720 elapsed seconds
Timing for main: time 2016-02-05_12:21:20 on domain   3:     .14954 elapsed seconds
Timing for main: time 2016-02-05_12:21:00 on domain   4:     .18501 elapsed seconds
Timing for main: time 2016-02-05_12:21:20 on domain   4:     .17433 elapsed seconds
Timing for main: time 2016-02-05_12:21:20 on domain   2:    1.41448 elapsed seconds
Timing for main: time 2016-02-05_12:21:33 on domain   3:     .16033 elapsed seconds
Timing for main: time 2016-02-05_12:21:46 on domain   3:     .14732 elapsed seconds
Timing for main: time 2016-02-05_12:22:00 on domain   3:     .14719 elapsed seconds
Timing for main: time 2016-02-05_12:21:40 on domain   4:     .18719 elapsed seconds
Timing for main: time 2016-02-05_12:22:00 on domain   4:     .17448 elapsed seconds
Timing for main: time 2016-02-05_12:22:00 on domain   2:    1.40641 elapsed seconds
Timing for main: time 2016-02-05_12:22:00 on domain   1:    4.55129 elapsed seconds
Timing for main: time 2016-02-05_12:22:13 on domain   3:     .16263 elapsed seconds
Timing for main: time 2016-02-05_12:22:26 on domain   3:     .14695 elapsed seconds
Timing for main: time 2016-02-05_12:22:40 on domain   3:     .15048 elapsed seconds
Timing for main: time 2016-02-05_12:22:20 on domain   4:     .18529 elapsed seconds
Timing for main: time 2016-02-05_12:22:40 on domain   4:     .17384 elapsed seconds
Timing for main: time 2016-02-05_12:22:40 on domain   2:    1.41501 elapsed seconds
Timing for main: time 2016-02-05_12:22:53 on domain   3:     .16068 elapsed seconds
Timing for main: time 2016-02-05_12:23:06 on domain   3:     .14712 elapsed seconds
Timing for main: time 2016-02-05_12:23:20 on domain   3:     .14714 elapsed seconds
Timing for main: time 2016-02-05_12:23:00 on domain   4:     .18443 elapsed seconds
Timing for main: time 2016-02-05_12:23:20 on domain   4:     .17924 elapsed seconds
Timing for main: time 2016-02-05_12:23:20 on domain   2:    1.40819 elapsed seconds
Timing for main: time 2016-02-05_12:23:33 on domain   3:     .16066 elapsed seconds
Timing for main: time 2016-02-05_12:23:46 on domain   3:     .14695 elapsed seconds
Timing for main: time 2016-02-05_12:24:00 on domain   3:     .15536 elapsed seconds
Timing for main: time 2016-02-05_12:23:40 on domain   4:     .18798 elapsed seconds
Timing for main: time 2016-02-05_12:24:00 on domain   4:     .17448 elapsed seconds
Timing for main: time 2016-02-05_12:24:00 on domain   2:    1.41469 elapsed seconds
Timing for main: time 2016-02-05_12:24:00 on domain   1:    4.55546 elapsed seconds
Timing for main: time 2016-02-05_12:24:13 on domain   3:     .17851 elapsed seconds
Timing for main: time 2016-02-05_12:24:26 on domain   3:     .14715 elapsed seconds
Timing for main: time 2016-02-05_12:24:40 on domain   3:     .14724 elapsed seconds
Timing for main: time 2016-02-05_12:24:20 on domain   4:     .18483 elapsed seconds
Timing for main: time 2016-02-05_12:24:40 on domain   4:     .17591 elapsed seconds
Timing for main: time 2016-02-05_12:24:40 on domain   2:    1.43565 elapsed seconds
Timing for main: time 2016-02-05_12:24:53 on domain   3:     .16062 elapsed seconds
Timing for main: time 2016-02-05_12:25:06 on domain   3:     .14735 elapsed seconds
Timing for main: time 2016-02-05_12:25:20 on domain   3:     .14690 elapsed seconds
Timing for main: time 2016-02-05_12:25:00 on domain   4:     .19273 elapsed seconds
Timing for main: time 2016-02-05_12:25:20 on domain   4:     .17422 elapsed seconds
Timing for main: time 2016-02-05_12:25:20 on domain   2:    1.40983 elapsed seconds
Timing for main: time 2016-02-05_12:25:33 on domain   3:     .16681 elapsed seconds
Timing for main: time 2016-02-05_12:25:46 on domain   3:     .14789 elapsed seconds
Timing for main: time 2016-02-05_12:26:00 on domain   3:     .14718 elapsed seconds
Timing for main: time 2016-02-05_12:25:40 on domain   4:     .18512 elapsed seconds
Timing for main: time 2016-02-05_12:26:00 on domain   4:     .17415 elapsed seconds
Timing for main: time 2016-02-05_12:26:00 on domain   2:    1.41070 elapsed seconds
Timing for main: time 2016-02-05_12:26:00 on domain   1:    4.56871 elapsed seconds
Timing for main: time 2016-02-05_12:26:13 on domain   3:     .16116 elapsed seconds
Timing for main: time 2016-02-05_12:26:26 on domain   3:     .14720 elapsed seconds
Timing for main: time 2016-02-05_12:26:40 on domain   3:     .14757 elapsed seconds
Timing for main: time 2016-02-05_12:26:20 on domain   4:     .18489 elapsed seconds
Timing for main: time 2016-02-05_12:26:40 on domain   4:     .17474 elapsed seconds
Timing for main: time 2016-02-05_12:26:40 on domain   2:    1.42049 elapsed seconds
Timing for main: time 2016-02-05_12:26:53 on domain   3:     .16049 elapsed seconds
Timing for main: time 2016-02-05_12:27:06 on domain   3:     .14719 elapsed seconds
Timing for main: time 2016-02-05_12:27:20 on domain   3:     .14719 elapsed seconds
Timing for main: time 2016-02-05_12:27:00 on domain   4:     .18319 elapsed seconds
Timing for main: time 2016-02-05_12:27:20 on domain   4:     .17427 elapsed seconds
Timing for main: time 2016-02-05_12:27:20 on domain   2:    1.40544 elapsed seconds
Timing for main: time 2016-02-05_12:27:33 on domain   3:     .16063 elapsed seconds
Timing for main: time 2016-02-05_12:27:46 on domain   3:     .14716 elapsed seconds
Timing for main: time 2016-02-05_12:28:00 on domain   3:     .14744 elapsed seconds
Timing for main: time 2016-02-05_12:27:40 on domain   4:     .18446 elapsed seconds
Timing for main: time 2016-02-05_12:28:00 on domain   4:     .17436 elapsed seconds
Timing for main: time 2016-02-05_12:28:00 on domain   2:    1.40361 elapsed seconds
Timing for main: time 2016-02-05_12:28:00 on domain   1:    4.54126 elapsed seconds
  photolysis_driver: called for domain  1
Timing for main: time 2016-02-05_12:28:13 on domain   3:     .16101 elapsed seconds
Timing for main: time 2016-02-05_12:28:26 on domain   3:     .14700 elapsed seconds
Timing for main: time 2016-02-05_12:28:40 on domain   3:     .14845 elapsed seconds
Timing for main: time 2016-02-05_12:28:20 on domain   4:     .18533 elapsed seconds
Timing for main: time 2016-02-05_12:28:40 on domain   4:     .17461 elapsed seconds
Timing for main: time 2016-02-05_12:28:40 on domain   2:    1.42554 elapsed seconds
Timing for main: time 2016-02-05_12:28:53 on domain   3:     .16230 elapsed seconds
Timing for main: time 2016-02-05_12:29:06 on domain   3:     .14790 elapsed seconds
Timing for main: time 2016-02-05_12:29:20 on domain   3:     .14714 elapsed seconds
Timing for main: time 2016-02-05_12:29:00 on domain   4:     .18451 elapsed seconds
Timing for main: time 2016-02-05_12:29:20 on domain   4:     .17851 elapsed seconds
Timing for main: time 2016-02-05_12:29:20 on domain   2:    1.41039 elapsed seconds
  photolysis_driver: called for domain  2
Timing for main: time 2016-02-05_12:29:33 on domain   3:     .16083 elapsed seconds
Timing for main: time 2016-02-05_12:29:46 on domain   3:     .14751 elapsed seconds
  photolysis_driver: called for domain  3
Timing for main: time 2016-02-05_12:30:00 on domain   3:     .84300 elapsed seconds
Timing for main: time 2016-02-05_12:29:40 on domain   4:     .18531 elapsed seconds
  photolysis_driver: called for domain  4
Timing for main: time 2016-02-05_12:30:00 on domain   4:    1.00662 elapsed seconds
Timing for main: time 2016-02-05_12:30:00 on domain   2:    3.79417 elapsed seconds
Timing for main: time 2016-02-05_12:30:00 on domain   1:    7.46338 elapsed seconds
Timing for main: time 2016-02-05_12:30:13 on domain   3:     .29555 elapsed seconds
Timing for main: time 2016-02-05_12:30:26 on domain   3:     .14633 elapsed seconds
Timing for main: time 2016-02-05_12:30:40 on domain   3:     .15253 elapsed seconds
Timing for main: time 2016-02-05_12:30:20 on domain   4:     .34559 elapsed seconds
Timing for main: time 2016-02-05_12:30:40 on domain   4:     .17328 elapsed seconds
Timing for main: time 2016-02-05_12:30:40 on domain   2:    1.88327 elapsed seconds
Timing for main: time 2016-02-05_12:30:53 on domain   3:     .15964 elapsed seconds
Timing for main: time 2016-02-05_12:31:06 on domain   3:     .14701 elapsed seconds
Timing for main: time 2016-02-05_12:31:20 on domain   3:     .14902 elapsed seconds
Timing for main: time 2016-02-05_12:31:00 on domain   4:     .18407 elapsed seconds
Timing for main: time 2016-02-05_12:31:20 on domain   4:     .17310 elapsed seconds
Timing for main: time 2016-02-05_12:31:20 on domain   2:    1.40089 elapsed seconds
Timing for main: time 2016-02-05_12:31:33 on domain   3:     .16001 elapsed seconds
Timing for main: time 2016-02-05_12:31:46 on domain   3:     .14586 elapsed seconds
Timing for main: time 2016-02-05_12:32:00 on domain   3:     .14653 elapsed seconds
Timing for main: time 2016-02-05_12:31:40 on domain   4:     .18361 elapsed seconds
Timing for main: time 2016-02-05_12:32:00 on domain   4:     .17279 elapsed seconds
Timing for main: time 2016-02-05_12:32:00 on domain   2:    1.40538 elapsed seconds
Timing for main: time 2016-02-05_12:32:00 on domain   1:    5.11374 elapsed seconds
Timing for main: time 2016-02-05_12:32:13 on domain   3:     .15989 elapsed seconds
Timing for main: time 2016-02-05_12:32:26 on domain   3:     .14615 elapsed seconds
Timing for main: time 2016-02-05_12:32:40 on domain   3:     .14854 elapsed seconds
Timing for main: time 2016-02-05_12:32:20 on domain   4:     .18395 elapsed seconds
Timing for main: time 2016-02-05_12:32:40 on domain   4:     .17453 elapsed seconds
Timing for main: time 2016-02-05_12:32:40 on domain   2:    1.40856 elapsed seconds
Timing for main: time 2016-02-05_12:32:53 on domain   3:     .15963 elapsed seconds
Timing for main: time 2016-02-05_12:33:06 on domain   3:     .14663 elapsed seconds
Timing for main: time 2016-02-05_12:33:20 on domain   3:     .14633 elapsed seconds
Timing for main: time 2016-02-05_12:33:00 on domain   4:     .18345 elapsed seconds
Timing for main: time 2016-02-05_12:33:20 on domain   4:     .17329 elapsed seconds
Timing for main: time 2016-02-05_12:33:20 on domain   2:    1.39707 elapsed seconds
Timing for main: time 2016-02-05_12:33:33 on domain   3:     .16003 elapsed seconds
Timing for main: time 2016-02-05_12:33:46 on domain   3:     .14654 elapsed seconds
Timing for main: time 2016-02-05_12:34:00 on domain   3:     .14642 elapsed seconds
Timing for main: time 2016-02-05_12:33:40 on domain   4:     .18425 elapsed seconds
Timing for main: time 2016-02-05_12:34:00 on domain   4:     .17269 elapsed seconds
Timing for main: time 2016-02-05_12:34:00 on domain   2:    1.39843 elapsed seconds
Timing for main: time 2016-02-05_12:34:00 on domain   1:    4.51610 elapsed seconds
Timing for main: time 2016-02-05_12:34:13 on domain   3:     .15945 elapsed seconds
Timing for main: time 2016-02-05_12:34:26 on domain   3:     .14869 elapsed seconds
Timing for main: time 2016-02-05_12:34:40 on domain   3:     .14413 elapsed seconds
Timing for main: time 2016-02-05_12:34:20 on domain   4:     .18381 elapsed seconds
Timing for main: time 2016-02-05_12:34:40 on domain   4:     .17393 elapsed seconds
Timing for main: time 2016-02-05_12:34:40 on domain   2:    1.40649 elapsed seconds
Timing for main: time 2016-02-05_12:34:53 on domain   3:     .16000 elapsed seconds
Timing for main: time 2016-02-05_12:35:06 on domain   3:     .14986 elapsed seconds
Timing for main: time 2016-02-05_12:35:20 on domain   3:     .14625 elapsed seconds
Timing for main: time 2016-02-05_12:35:00 on domain   4:     .19155 elapsed seconds
Timing for main: time 2016-02-05_12:35:20 on domain   4:     .17325 elapsed seconds
Timing for main: time 2016-02-05_12:35:20 on domain   2:    1.40895 elapsed seconds
Timing for main: time 2016-02-05_12:35:33 on domain   3:     .15974 elapsed seconds
Timing for main: time 2016-02-05_12:35:46 on domain   3:     .15524 elapsed seconds
Timing for main: time 2016-02-05_12:36:00 on domain   3:     .14920 elapsed seconds
Timing for main: time 2016-02-05_12:35:40 on domain   4:     .18410 elapsed seconds
Timing for main: time 2016-02-05_12:36:00 on domain   4:     .17314 elapsed seconds
Timing for main: time 2016-02-05_12:36:00 on domain   2:    1.40874 elapsed seconds
Timing for main: time 2016-02-05_12:36:00 on domain   1:    4.54252 elapsed seconds
Timing for main: time 2016-02-05_12:36:13 on domain   3:     .15919 elapsed seconds
Timing for main: time 2016-02-05_12:36:26 on domain   3:     .14815 elapsed seconds
Timing for main: time 2016-02-05_12:36:40 on domain   3:     .14636 elapsed seconds
Timing for main: time 2016-02-05_12:36:20 on domain   4:     .18394 elapsed seconds
Timing for main: time 2016-02-05_12:36:40 on domain   4:     .17340 elapsed seconds
Timing for main: time 2016-02-05_12:36:40 on domain   2:    1.40758 elapsed seconds
Timing for main: time 2016-02-05_12:36:53 on domain   3:     .15963 elapsed seconds
Timing for main: time 2016-02-05_12:37:06 on domain   3:     .14854 elapsed seconds
Timing for main: time 2016-02-05_12:37:20 on domain   3:     .14671 elapsed seconds
Timing for main: time 2016-02-05_12:37:00 on domain   4:     .21743 elapsed seconds
Timing for main: time 2016-02-05_12:37:20 on domain   4:     .23235 elapsed seconds
Timing for main: time 2016-02-05_12:37:20 on domain   2:    1.50188 elapsed seconds
Timing for main: time 2016-02-05_12:37:33 on domain   3:     .15877 elapsed seconds
Timing for main: time 2016-02-05_12:37:46 on domain   3:     .14657 elapsed seconds
Timing for main: time 2016-02-05_12:38:00 on domain   3:     .14663 elapsed seconds
Timing for main: time 2016-02-05_12:37:40 on domain   4:     .18380 elapsed seconds
Timing for main: time 2016-02-05_12:38:00 on domain   4:     .17360 elapsed seconds
Timing for main: time 2016-02-05_12:38:00 on domain   2:    1.39771 elapsed seconds
Timing for main: time 2016-02-05_12:38:00 on domain   1:    4.61899 elapsed seconds
Timing for main: time 2016-02-05_12:38:13 on domain   3:     .15975 elapsed seconds
Timing for main: time 2016-02-05_12:38:26 on domain   3:     .14646 elapsed seconds
Timing for main: time 2016-02-05_12:38:40 on domain   3:     .14650 elapsed seconds
Timing for main: time 2016-02-05_12:38:20 on domain   4:     .18334 elapsed seconds
Timing for main: time 2016-02-05_12:38:40 on domain   4:     .17354 elapsed seconds
Timing for main: time 2016-02-05_12:38:40 on domain   2:    1.40715 elapsed seconds
Timing for main: time 2016-02-05_12:38:53 on domain   3:     .15912 elapsed seconds
Timing for main: time 2016-02-05_12:39:06 on domain   3:     .14648 elapsed seconds
Timing for main: time 2016-02-05_12:39:20 on domain   3:     .14662 elapsed seconds
Timing for main: time 2016-02-05_12:39:00 on domain   4:     .18395 elapsed seconds
Timing for main: time 2016-02-05_12:39:20 on domain   4:     .17315 elapsed seconds
Timing for main: time 2016-02-05_12:39:20 on domain   2:    1.40333 elapsed seconds
Timing for main: time 2016-02-05_12:39:33 on domain   3:     .15954 elapsed seconds
Timing for main: time 2016-02-05_12:39:46 on domain   3:     .15216 elapsed seconds
Timing for main: time 2016-02-05_12:40:00 on domain   3:     .14659 elapsed seconds
Timing for main: time 2016-02-05_12:39:40 on domain   4:     .18471 elapsed seconds
Timing for main: time 2016-02-05_12:40:00 on domain   4:     .18218 elapsed seconds
Timing for main: time 2016-02-05_12:40:00 on domain   2:    1.41423 elapsed seconds
Timing for main: time 2016-02-05_12:40:00 on domain   1:    4.53598 elapsed seconds
Timing for main: time 2016-02-05_12:40:13 on domain   3:     .16020 elapsed seconds
Timing for main: time 2016-02-05_12:40:26 on domain   3:     .14832 elapsed seconds
Timing for main: time 2016-02-05_12:40:40 on domain   3:     .14691 elapsed seconds
Timing for main: time 2016-02-05_12:40:20 on domain   4:     .18380 elapsed seconds
Timing for main: time 2016-02-05_12:40:40 on domain   4:     .17323 elapsed seconds
Timing for main: time 2016-02-05_12:40:40 on domain   2:    1.40906 elapsed seconds
Timing for main: time 2016-02-05_12:40:53 on domain   3:     .16588 elapsed seconds
Timing for main: time 2016-02-05_12:41:06 on domain   3:     .14698 elapsed seconds
Timing for main: time 2016-02-05_12:41:20 on domain   3:     .14686 elapsed seconds
Timing for main: time 2016-02-05_12:41:00 on domain   4:     .18407 elapsed seconds
Timing for main: time 2016-02-05_12:41:20 on domain   4:     .17353 elapsed seconds
Timing for main: time 2016-02-05_12:41:20 on domain   2:    1.41220 elapsed seconds
Timing for main: time 2016-02-05_12:41:33 on domain   3:     .15997 elapsed seconds
Timing for main: time 2016-02-05_12:41:46 on domain   3:     .15135 elapsed seconds
Timing for main: time 2016-02-05_12:42:00 on domain   3:     .19055 elapsed seconds
Timing for main: time 2016-02-05_12:41:40 on domain   4:     .19032 elapsed seconds
Timing for main: time 2016-02-05_12:42:00 on domain   4:     .17356 elapsed seconds
Timing for main: time 2016-02-05_12:42:00 on domain   2:    1.47436 elapsed seconds
Timing for main: time 2016-02-05_12:42:00 on domain   1:    4.61281 elapsed seconds
Timing for main: time 2016-02-05_12:42:13 on domain   3:     .15983 elapsed seconds
Timing for main: time 2016-02-05_12:42:26 on domain   3:     .14669 elapsed seconds
Timing for main: time 2016-02-05_12:42:40 on domain   3:     .15174 elapsed seconds
Timing for main: time 2016-02-05_12:42:20 on domain   4:     .18383 elapsed seconds
Timing for main: time 2016-02-05_12:42:40 on domain   4:     .17333 elapsed seconds
Timing for main: time 2016-02-05_12:42:40 on domain   2:    1.41603 elapsed seconds
Timing for main: time 2016-02-05_12:42:53 on domain   3:     .15974 elapsed seconds
Timing for main: time 2016-02-05_12:43:06 on domain   3:     .14646 elapsed seconds
Timing for main: time 2016-02-05_12:43:20 on domain   3:     .14670 elapsed seconds
Timing for main: time 2016-02-05_12:43:00 on domain   4:     .18105 elapsed seconds
Timing for main: time 2016-02-05_12:43:20 on domain   4:     .17366 elapsed seconds
Timing for main: time 2016-02-05_12:43:20 on domain   2:    1.39920 elapsed seconds
Timing for main: time 2016-02-05_12:43:33 on domain   3:     .15969 elapsed seconds
Timing for main: time 2016-02-05_12:43:46 on domain   3:     .14663 elapsed seconds
Timing for main: time 2016-02-05_12:44:00 on domain   3:     .15099 elapsed seconds
Timing for main: time 2016-02-05_12:43:40 on domain   4:     .19709 elapsed seconds
Timing for main: time 2016-02-05_12:44:00 on domain   4:     .16894 elapsed seconds
Timing for main: time 2016-02-05_12:44:00 on domain   2:    1.44317 elapsed seconds
Timing for main: time 2016-02-05_12:44:00 on domain   1:    4.56992 elapsed seconds
Timing for main: time 2016-02-05_12:44:13 on domain   3:     .16001 elapsed seconds
Timing for main: time 2016-02-05_12:44:26 on domain   3:     .14964 elapsed seconds
Timing for main: time 2016-02-05_12:44:40 on domain   3:     .15879 elapsed seconds
Timing for main: time 2016-02-05_12:44:20 on domain   4:     .18324 elapsed seconds
Timing for main: time 2016-02-05_12:44:40 on domain   4:     .17353 elapsed seconds
Timing for main: time 2016-02-05_12:44:40 on domain   2:    1.42166 elapsed seconds
Timing for main: time 2016-02-05_12:44:53 on domain   3:     .15958 elapsed seconds
Timing for main: time 2016-02-05_12:45:06 on domain   3:     .14654 elapsed seconds
Timing for main: time 2016-02-05_12:45:20 on domain   3:     .14643 elapsed seconds
Timing for main: time 2016-02-05_12:45:00 on domain   4:     .19093 elapsed seconds
Timing for main: time 2016-02-05_12:45:20 on domain   4:     .17362 elapsed seconds
Timing for main: time 2016-02-05_12:45:20 on domain   2:    1.40653 elapsed seconds
Timing for main: time 2016-02-05_12:45:33 on domain   3:     .16285 elapsed seconds
Timing for main: time 2016-02-05_12:45:46 on domain   3:     .14733 elapsed seconds
Timing for main: time 2016-02-05_12:46:00 on domain   3:     .15586 elapsed seconds
Timing for main: time 2016-02-05_12:45:40 on domain   4:     .18913 elapsed seconds
Timing for main: time 2016-02-05_12:46:00 on domain   4:     .17447 elapsed seconds
Timing for main: time 2016-02-05_12:46:00 on domain   2:    1.41858 elapsed seconds
Timing for main: time 2016-02-05_12:46:00 on domain   1:    4.55749 elapsed seconds
Timing for main: time 2016-02-05_12:46:13 on domain   3:     .15977 elapsed seconds
Timing for main: time 2016-02-05_12:46:26 on domain   3:     .14678 elapsed seconds
Timing for main: time 2016-02-05_12:46:40 on domain   3:     .14665 elapsed seconds
Timing for main: time 2016-02-05_12:46:20 on domain   4:     .18388 elapsed seconds
Timing for main: time 2016-02-05_12:46:40 on domain   4:     .17606 elapsed seconds
Timing for main: time 2016-02-05_12:46:40 on domain   2:    1.40965 elapsed seconds
Timing for main: time 2016-02-05_12:46:53 on domain   3:     .16184 elapsed seconds
Timing for main: time 2016-02-05_12:47:06 on domain   3:     .14701 elapsed seconds
Timing for main: time 2016-02-05_12:47:20 on domain   3:     .14679 elapsed seconds
Timing for main: time 2016-02-05_12:47:00 on domain   4:     .18363 elapsed seconds
Timing for main: time 2016-02-05_12:47:20 on domain   4:     .17596 elapsed seconds
Timing for main: time 2016-02-05_12:47:20 on domain   2:    1.40445 elapsed seconds
Timing for main: time 2016-02-05_12:47:33 on domain   3:     .15921 elapsed seconds
Timing for main: time 2016-02-05_12:47:46 on domain   3:     .14684 elapsed seconds
Timing for main: time 2016-02-05_12:48:00 on domain   3:     .14723 elapsed seconds
Timing for main: time 2016-02-05_12:47:40 on domain   4:     .18398 elapsed seconds
Timing for main: time 2016-02-05_12:48:00 on domain   4:     .17322 elapsed seconds
Timing for main: time 2016-02-05_12:48:00 on domain   2:    1.40634 elapsed seconds
Timing for main: time 2016-02-05_12:48:00 on domain   1:    4.53741 elapsed seconds
Timing for main: time 2016-02-05_12:48:13 on domain   3:     .15980 elapsed seconds
Timing for main: time 2016-02-05_12:48:26 on domain   3:     .14656 elapsed seconds
Timing for main: time 2016-02-05_12:48:40 on domain   3:     .14680 elapsed seconds
Timing for main: time 2016-02-05_12:48:20 on domain   4:     .18388 elapsed seconds
Timing for main: time 2016-02-05_12:48:40 on domain   4:     .17553 elapsed seconds
Timing for main: time 2016-02-05_12:48:40 on domain   2:    1.40817 elapsed seconds
Timing for main: time 2016-02-05_12:48:53 on domain   3:     .15903 elapsed seconds
Timing for main: time 2016-02-05_12:49:06 on domain   3:     .14668 elapsed seconds
Timing for main: time 2016-02-05_12:49:20 on domain   3:     .14667 elapsed seconds
Timing for main: time 2016-02-05_12:49:00 on domain   4:     .18391 elapsed seconds
Timing for main: time 2016-02-05_12:49:20 on domain   4:     .17332 elapsed seconds
Timing for main: time 2016-02-05_12:49:20 on domain   2:    1.40143 elapsed seconds
Timing for main: time 2016-02-05_12:49:33 on domain   3:     .15967 elapsed seconds
Timing for main: time 2016-02-05_12:49:46 on domain   3:     .14629 elapsed seconds
Timing for main: time 2016-02-05_12:50:00 on domain   3:     .14677 elapsed seconds
Timing for main: time 2016-02-05_12:49:40 on domain   4:     .18382 elapsed seconds
Timing for main: time 2016-02-05_12:50:00 on domain   4:     .18080 elapsed seconds
Timing for main: time 2016-02-05_12:50:00 on domain   2:    1.40680 elapsed seconds
Timing for main: time 2016-02-05_12:50:00 on domain   1:    4.52822 elapsed seconds
Timing for main: time 2016-02-05_12:50:13 on domain   3:     .20038 elapsed seconds
Timing for main: time 2016-02-05_12:50:26 on domain   3:     .14705 elapsed seconds
Timing for main: time 2016-02-05_12:50:40 on domain   3:     .14712 elapsed seconds
Timing for main: time 2016-02-05_12:50:20 on domain   4:     .18440 elapsed seconds
Timing for main: time 2016-02-05_12:50:40 on domain   4:     .17300 elapsed seconds
Timing for main: time 2016-02-05_12:50:40 on domain   2:    1.44881 elapsed seconds
Timing for main: time 2016-02-05_12:50:53 on domain   3:     .15993 elapsed seconds
Timing for main: time 2016-02-05_12:51:06 on domain   3:     .15325 elapsed seconds
Timing for main: time 2016-02-05_12:51:20 on domain   3:     .14744 elapsed seconds
Timing for main: time 2016-02-05_12:51:00 on domain   4:     .18459 elapsed seconds
Timing for main: time 2016-02-05_12:51:20 on domain   4:     .17502 elapsed seconds
Timing for main: time 2016-02-05_12:51:20 on domain   2:    1.40889 elapsed seconds
Timing for main: time 2016-02-05_12:51:33 on domain   3:     .16014 elapsed seconds
Timing for main: time 2016-02-05_12:51:46 on domain   3:     .14640 elapsed seconds
Timing for main: time 2016-02-05_12:52:00 on domain   3:     .14678 elapsed seconds
Timing for main: time 2016-02-05_12:51:40 on domain   4:     .18432 elapsed seconds
Timing for main: time 2016-02-05_12:52:00 on domain   4:     .17954 elapsed seconds
Timing for main: time 2016-02-05_12:52:00 on domain   2:    1.40691 elapsed seconds
Timing for main: time 2016-02-05_12:52:00 on domain   1:    4.57674 elapsed seconds
Timing for main: time 2016-02-05_12:52:13 on domain   3:     .15990 elapsed seconds
Timing for main: time 2016-02-05_12:52:26 on domain   3:     .14649 elapsed seconds
Timing for main: time 2016-02-05_12:52:40 on domain   3:     .14714 elapsed seconds
Timing for main: time 2016-02-05_12:52:20 on domain   4:     .18410 elapsed seconds
Timing for main: time 2016-02-05_12:52:40 on domain   4:     .17301 elapsed seconds
Timing for main: time 2016-02-05_12:52:40 on domain   2:    1.40647 elapsed seconds
Timing for main: time 2016-02-05_12:52:53 on domain   3:     .15937 elapsed seconds
Timing for main: time 2016-02-05_12:53:06 on domain   3:     .14636 elapsed seconds
Timing for main: time 2016-02-05_12:53:20 on domain   3:     .15011 elapsed seconds
Timing for main: time 2016-02-05_12:53:00 on domain   4:     .18491 elapsed seconds
Timing for main: time 2016-02-05_12:53:20 on domain   4:     .17676 elapsed seconds
Timing for main: time 2016-02-05_12:53:20 on domain   2:    1.41520 elapsed seconds
Timing for main: time 2016-02-05_12:53:33 on domain   3:     .15994 elapsed seconds
Timing for main: time 2016-02-05_12:53:46 on domain   3:     .14683 elapsed seconds
Timing for main: time 2016-02-05_12:54:00 on domain   3:     .14805 elapsed seconds
Timing for main: time 2016-02-05_12:53:40 on domain   4:     .18422 elapsed seconds
Timing for main: time 2016-02-05_12:54:00 on domain   4:     .19110 elapsed seconds
Timing for main: time 2016-02-05_12:54:00 on domain   2:    1.41978 elapsed seconds
Timing for main: time 2016-02-05_12:54:00 on domain   1:    4.55888 elapsed seconds
Timing for main: time 2016-02-05_12:54:13 on domain   3:     .15991 elapsed seconds
Timing for main: time 2016-02-05_12:54:26 on domain   3:     .14846 elapsed seconds
Timing for main: time 2016-02-05_12:54:40 on domain   3:     .14663 elapsed seconds
Timing for main: time 2016-02-05_12:54:20 on domain   4:     .18396 elapsed seconds
Timing for main: time 2016-02-05_12:54:40 on domain   4:     .17339 elapsed seconds
Timing for main: time 2016-02-05_12:54:40 on domain   2:    1.40761 elapsed seconds
Timing for main: time 2016-02-05_12:54:53 on domain   3:     .16142 elapsed seconds
Timing for main: time 2016-02-05_12:55:06 on domain   3:     .18754 elapsed seconds
Timing for main: time 2016-02-05_12:55:20 on domain   3:     .19331 elapsed seconds
Timing for main: time 2016-02-05_12:55:00 on domain   4:     .19214 elapsed seconds
Timing for main: time 2016-02-05_12:55:20 on domain   4:     .17441 elapsed seconds
Timing for main: time 2016-02-05_12:55:20 on domain   2:    1.54835 elapsed seconds
Timing for main: time 2016-02-05_12:55:33 on domain   3:     .15961 elapsed seconds
Timing for main: time 2016-02-05_12:55:46 on domain   3:     .14883 elapsed seconds
Timing for main: time 2016-02-05_12:56:00 on domain   3:     .14826 elapsed seconds
Timing for main: time 2016-02-05_12:55:40 on domain   4:     .20117 elapsed seconds
Timing for main: time 2016-02-05_12:56:00 on domain   4:     .17288 elapsed seconds
Timing for main: time 2016-02-05_12:56:00 on domain   2:    1.43396 elapsed seconds
Timing for main: time 2016-02-05_12:56:00 on domain   1:    4.70072 elapsed seconds
Timing for main: time 2016-02-05_12:56:13 on domain   3:     .16394 elapsed seconds
Timing for main: time 2016-02-05_12:56:26 on domain   3:     .14667 elapsed seconds
Timing for main: time 2016-02-05_12:56:40 on domain   3:     .14712 elapsed seconds
Timing for main: time 2016-02-05_12:56:20 on domain   4:     .18459 elapsed seconds
Timing for main: time 2016-02-05_12:56:40 on domain   4:     .17323 elapsed seconds
Timing for main: time 2016-02-05_12:56:40 on domain   2:    1.42467 elapsed seconds
Timing for main: time 2016-02-05_12:56:53 on domain   3:     .15911 elapsed seconds
Timing for main: time 2016-02-05_12:57:06 on domain   3:     .14762 elapsed seconds
Timing for main: time 2016-02-05_12:57:20 on domain   3:     .14635 elapsed seconds
Timing for main: time 2016-02-05_12:57:00 on domain   4:     .18372 elapsed seconds
Timing for main: time 2016-02-05_12:57:20 on domain   4:     .17311 elapsed seconds
Timing for main: time 2016-02-05_12:57:20 on domain   2:    1.40057 elapsed seconds
Timing for main: time 2016-02-05_12:57:33 on domain   3:     .17440 elapsed seconds
Timing for main: time 2016-02-05_12:57:46 on domain   3:     .17686 elapsed seconds
Timing for main: time 2016-02-05_12:58:00 on domain   3:     .21213 elapsed seconds
Timing for main: time 2016-02-05_12:57:40 on domain   4:     .18452 elapsed seconds
Timing for main: time 2016-02-05_12:58:00 on domain   4:     .17318 elapsed seconds
Timing for main: time 2016-02-05_12:58:00 on domain   2:    1.51033 elapsed seconds
Timing for main: time 2016-02-05_12:58:00 on domain   1:    4.64669 elapsed seconds
  photolysis_driver: called for domain  1
Timing for main: time 2016-02-05_12:58:13 on domain   3:     .15990 elapsed seconds
Timing for main: time 2016-02-05_12:58:26 on domain   3:     .14675 elapsed seconds
Timing for main: time 2016-02-05_12:58:40 on domain   3:     .14885 elapsed seconds
Timing for main: time 2016-02-05_12:58:20 on domain   4:     .18419 elapsed seconds
Timing for main: time 2016-02-05_12:58:40 on domain   4:     .17352 elapsed seconds
Timing for main: time 2016-02-05_12:58:40 on domain   2:    1.41763 elapsed seconds
Timing for main: time 2016-02-05_12:58:53 on domain   3:     .15965 elapsed seconds
Timing for main: time 2016-02-05_12:59:06 on domain   3:     .14669 elapsed seconds
Timing for main: time 2016-02-05_12:59:20 on domain   3:     .14699 elapsed seconds
Timing for main: time 2016-02-05_12:59:00 on domain   4:     .18397 elapsed seconds
Timing for main: time 2016-02-05_12:59:20 on domain   4:     .17359 elapsed seconds
Timing for main: time 2016-02-05_12:59:20 on domain   2:    1.40096 elapsed seconds
  photolysis_driver: called for domain  2
Timing for main: time 2016-02-05_12:59:33 on domain   3:     .17323 elapsed seconds
Timing for main: time 2016-02-05_12:59:46 on domain   3:     .15059 elapsed seconds
  photolysis_driver: called for domain  3
Timing for main: time 2016-02-05_13:00:00 on domain   3:     .85288 elapsed seconds
Timing for main: time 2016-02-05_12:59:40 on domain   4:     .20261 elapsed seconds
  photolysis_driver: called for domain  4
Timing for main: time 2016-02-05_13:00:00 on domain   4:    1.02662 elapsed seconds
Timing for main: time 2016-02-05_13:00:00 on domain   2:    3.94340 elapsed seconds
Timing for main: time 2016-02-05_13:00:00 on domain   1:    7.58851 elapsed seconds
Timing for Writing wrfout_d01_2016-02-05_13:00:00 for domain        1:    1.78382 elapsed seconds
  HOURLY EMISSIONS UPDATE TIME     3600.0        .0
 mediation_integrate: med_read_wrf_chem_emissions: Read emissions for time 2016-02-05_13:00:00
 **WARNING** Time in input file not being checked **WARNING**
Timing for Writing wrfout_d02_2016-02-05_13:00:00 for domain        2:    2.08755 elapsed seconds
Timing for Writing wrfout_d03_2016-02-05_13:00:00 for domain        3:    2.15568 elapsed seconds
Timing for main: time 2016-02-05_13:00:13 on domain   3:    2.49843 elapsed seconds
Timing for main: time 2016-02-05_13:00:26 on domain   3:     .19642 elapsed seconds
Timing for main: time 2016-02-05_13:00:40 on domain   3:     .20205 elapsed seconds
Timing for Writing wrfout_d04_2016-02-05_13:00:00 for domain        4:    2.96966 elapsed seconds
Timing for main: time 2016-02-05_13:00:20 on domain   4:    3.39394 elapsed seconds
Timing for main: time 2016-02-05_13:00:40 on domain   4:     .20585 elapsed seconds
Timing for main: time 2016-02-05_13:00:40 on domain   2:    9.45475 elapsed seconds
Timing for main: time 2016-02-05_13:00:53 on domain   3:     .17181 elapsed seconds
Timing for main: time 2016-02-05_13:01:06 on domain   3:     .18079 elapsed seconds
Timing for main: time 2016-02-05_13:01:20 on domain   3:     .18750 elapsed seconds
Timing for main: time 2016-02-05_13:01:00 on domain   4:     .19869 elapsed seconds
Timing for main: time 2016-02-05_13:01:20 on domain   4:     .21176 elapsed seconds
Timing for main: time 2016-02-05_13:01:20 on domain   2:    1.61002 elapsed seconds
Timing for main: time 2016-02-05_13:01:33 on domain   3:     .17223 elapsed seconds
Timing for main: time 2016-02-05_13:01:46 on domain   3:     .18041 elapsed seconds
Timing for main: time 2016-02-05_13:02:00 on domain   3:     .18018 elapsed seconds
Timing for main: time 2016-02-05_13:01:40 on domain   4:     .19852 elapsed seconds
Timing for main: time 2016-02-05_13:02:00 on domain   4:     .21230 elapsed seconds
Timing for main: time 2016-02-05_13:02:00 on domain   2:    1.59505 elapsed seconds
Timing for main: time 2016-02-05_13:02:00 on domain   1:   15.38079 elapsed seconds
Timing for main: time 2016-02-05_13:02:13 on domain   3:     .17649 elapsed seconds
Timing for main: time 2016-02-05_13:02:26 on domain   3:     .15818 elapsed seconds
Timing for main: time 2016-02-05_13:02:40 on domain   3:     .19118 elapsed seconds
Timing for main: time 2016-02-05_13:02:20 on domain   4:     .20423 elapsed seconds
Timing for main: time 2016-02-05_13:02:40 on domain   4:     .21964 elapsed seconds
Timing for main: time 2016-02-05_13:02:40 on domain   2:    1.61213 elapsed seconds
Timing for main: time 2016-02-05_13:02:53 on domain   3:     .17104 elapsed seconds
Timing for main: time 2016-02-05_13:03:06 on domain   3:     .17864 elapsed seconds
Timing for main: time 2016-02-05_13:03:20 on domain   3:     .17134 elapsed seconds
Timing for main: time 2016-02-05_13:03:00 on domain   4:     .20274 elapsed seconds
Timing for main: time 2016-02-05_13:03:20 on domain   4:     .22649 elapsed seconds
Timing for main: time 2016-02-05_13:03:20 on domain   2:    1.63253 elapsed seconds
Timing for main: time 2016-02-05_13:03:33 on domain   3:     .17154 elapsed seconds
Timing for main: time 2016-02-05_13:03:46 on domain   3:     .17857 elapsed seconds
Timing for main: time 2016-02-05_13:04:00 on domain   3:     .18316 elapsed seconds
Timing for main: time 2016-02-05_13:03:40 on domain   4:     .20344 elapsed seconds
Timing for main: time 2016-02-05_13:04:00 on domain   4:     .21740 elapsed seconds
Timing for main: time 2016-02-05_13:04:00 on domain   2:    1.64331 elapsed seconds
Timing for main: time 2016-02-05_13:04:00 on domain   1:    5.24065 elapsed seconds
Timing for main: time 2016-02-05_13:04:13 on domain   3:     .17174 elapsed seconds
Timing for main: time 2016-02-05_13:04:26 on domain   3:     .17704 elapsed seconds
Timing for main: time 2016-02-05_13:04:40 on domain   3:     .18672 elapsed seconds
Timing for main: time 2016-02-05_13:04:20 on domain   4:     .20401 elapsed seconds
Timing for main: time 2016-02-05_13:04:40 on domain   4:     .22283 elapsed seconds
Timing for main: time 2016-02-05_13:04:40 on domain   2:    1.60721 elapsed seconds
Timing for main: time 2016-02-05_13:04:53 on domain   3:     .17189 elapsed seconds
Timing for main: time 2016-02-05_13:05:06 on domain   3:     .18641 elapsed seconds
Timing for main: time 2016-02-05_13:05:20 on domain   3:     .18746 elapsed seconds
Timing for main: time 2016-02-05_13:05:00 on domain   4:     .21250 elapsed seconds
Timing for main: time 2016-02-05_13:05:20 on domain   4:     .21904 elapsed seconds
Timing for main: time 2016-02-05_13:05:20 on domain   2:    1.63986 elapsed seconds
Timing for main: time 2016-02-05_13:05:33 on domain   3:     .17239 elapsed seconds
Timing for main: time 2016-02-05_13:05:46 on domain   3:     .18564 elapsed seconds
Timing for main: time 2016-02-05_13:06:00 on domain   3:     .18265 elapsed seconds
Timing for main: time 2016-02-05_13:05:40 on domain   4:     .20726 elapsed seconds
Timing for main: time 2016-02-05_13:06:00 on domain   4:     .21474 elapsed seconds
Timing for main: time 2016-02-05_13:06:00 on domain   2:    1.65002 elapsed seconds
Timing for main: time 2016-02-05_13:06:00 on domain   1:    5.25769 elapsed seconds
Timing for main: time 2016-02-05_13:06:13 on domain   3:     .17561 elapsed seconds
Timing for main: time 2016-02-05_13:06:26 on domain   3:     .19283 elapsed seconds
Timing for main: time 2016-02-05_13:06:40 on domain   3:     .18310 elapsed seconds
Timing for main: time 2016-02-05_13:06:20 on domain   4:     .19691 elapsed seconds
Timing for main: time 2016-02-05_13:06:40 on domain   4:     .20383 elapsed seconds
Timing for main: time 2016-02-05_13:06:40 on domain   2:    1.60216 elapsed seconds
Timing for main: time 2016-02-05_13:06:53 on domain   3:     .17609 elapsed seconds
Timing for main: time 2016-02-05_13:07:06 on domain   3:     .18154 elapsed seconds
Timing for main: time 2016-02-05_13:07:20 on domain   3:     .18702 elapsed seconds
Timing for main: time 2016-02-05_13:07:00 on domain   4:     .19744 elapsed seconds
Timing for main: time 2016-02-05_13:07:20 on domain   4:     .20527 elapsed seconds
Timing for main: time 2016-02-05_13:07:20 on domain   2:    1.59951 elapsed seconds
Timing for main: time 2016-02-05_13:07:33 on domain   3:     .17116 elapsed seconds
Timing for main: time 2016-02-05_13:07:46 on domain   3:     .17743 elapsed seconds
Timing for main: time 2016-02-05_13:08:00 on domain   3:     .17565 elapsed seconds
Timing for main: time 2016-02-05_13:07:40 on domain   4:     .20972 elapsed seconds
Timing for main: time 2016-02-05_13:08:00 on domain   4:     .21597 elapsed seconds
Timing for main: time 2016-02-05_13:08:00 on domain   2:    1.60257 elapsed seconds
Timing for main: time 2016-02-05_13:08:00 on domain   1:    5.17272 elapsed seconds
Timing for main: time 2016-02-05_13:08:13 on domain   3:     .16909 elapsed seconds
Timing for main: time 2016-02-05_13:08:26 on domain   3:     .17487 elapsed seconds
Timing for main: time 2016-02-05_13:08:40 on domain   3:     .17889 elapsed seconds
Timing for main: time 2016-02-05_13:08:20 on domain   4:     .20142 elapsed seconds
Timing for main: time 2016-02-05_13:08:40 on domain   4:     .21777 elapsed seconds
Timing for main: time 2016-02-05_13:08:40 on domain   2:    1.59687 elapsed seconds
Timing for main: time 2016-02-05_13:08:53 on domain   3:     .16894 elapsed seconds
Timing for main: time 2016-02-05_13:09:06 on domain   3:     .17610 elapsed seconds
Timing for main: time 2016-02-05_13:09:20 on domain   3:     .17617 elapsed seconds
Timing for main: time 2016-02-05_13:09:00 on domain   4:     .19711 elapsed seconds
Timing for main: time 2016-02-05_13:09:20 on domain   4:     .20425 elapsed seconds
Timing for main: time 2016-02-05_13:09:20 on domain   2:    1.59318 elapsed seconds
Timing for main: time 2016-02-05_13:09:33 on domain   3:     .17277 elapsed seconds
Timing for main: time 2016-02-05_13:09:46 on domain   3:     .18007 elapsed seconds
Timing for main: time 2016-02-05_13:10:00 on domain   3:     .17960 elapsed seconds
Timing for main: time 2016-02-05_13:09:40 on domain   4:     .19806 elapsed seconds
Timing for main: time 2016-02-05_13:10:00 on domain   4:     .22302 elapsed seconds
Timing for main: time 2016-02-05_13:10:00 on domain   2:    1.60842 elapsed seconds
Timing for main: time 2016-02-05_13:10:00 on domain   1:    5.15870 elapsed seconds
Timing for main: time 2016-02-05_13:10:13 on domain   3:     .20354 elapsed seconds
Timing for main: time 2016-02-05_13:10:26 on domain   3:     .17396 elapsed seconds
Timing for main: time 2016-02-05_13:10:40 on domain   3:     .17668 elapsed seconds
Timing for main: time 2016-02-05_13:10:20 on domain   4:     .19950 elapsed seconds
Timing for main: time 2016-02-05_13:10:40 on domain   4:     .21304 elapsed seconds
Timing for main: time 2016-02-05_13:10:40 on domain   2:    1.63311 elapsed seconds
Timing for main: time 2016-02-05_13:10:53 on domain   3:     .17130 elapsed seconds
Timing for main: time 2016-02-05_13:11:06 on domain   3:     .18138 elapsed seconds
Timing for main: time 2016-02-05_13:11:20 on domain   3:     .18079 elapsed seconds
Timing for main: time 2016-02-05_13:11:00 on domain   4:     .19800 elapsed seconds
Timing for main: time 2016-02-05_13:11:20 on domain   4:     .21287 elapsed seconds
Timing for main: time 2016-02-05_13:11:20 on domain   2:    1.58895 elapsed seconds
Timing for main: time 2016-02-05_13:11:33 on domain   3:     .17987 elapsed seconds
Timing for main: time 2016-02-05_13:11:46 on domain   3:     .18118 elapsed seconds
Timing for main: time 2016-02-05_13:12:00 on domain   3:     .18359 elapsed seconds
Timing for main: time 2016-02-05_13:11:40 on domain   4:     .19997 elapsed seconds
Timing for main: time 2016-02-05_13:12:00 on domain   4:     .21313 elapsed seconds
Timing for main: time 2016-02-05_13:12:00 on domain   2:    1.61336 elapsed seconds
Timing for main: time 2016-02-05_13:12:00 on domain   1:    5.18960 elapsed seconds
Timing for main: time 2016-02-05_13:12:13 on domain   3:     .17261 elapsed seconds
Timing for main: time 2016-02-05_13:12:26 on domain   3:     .18256 elapsed seconds
Timing for main: time 2016-02-05_13:12:40 on domain   3:     .18084 elapsed seconds
Timing for main: time 2016-02-05_13:12:20 on domain   4:     .19852 elapsed seconds
Timing for main: time 2016-02-05_13:12:40 on domain   4:     .21450 elapsed seconds
Timing for main: time 2016-02-05_13:12:40 on domain   2:    1.58532 elapsed seconds
Timing for main: time 2016-02-05_13:12:53 on domain   3:     .17234 elapsed seconds
Timing for main: time 2016-02-05_13:13:06 on domain   3:     .18219 elapsed seconds
Timing for main: time 2016-02-05_13:13:20 on domain   3:     .18199 elapsed seconds
Timing for main: time 2016-02-05_13:13:00 on domain   4:     .19973 elapsed seconds
Timing for main: time 2016-02-05_13:13:20 on domain   4:     .21558 elapsed seconds
Timing for main: time 2016-02-05_13:13:20 on domain   2:    1.60011 elapsed seconds
Timing for main: time 2016-02-05_13:13:33 on domain   3:     .17164 elapsed seconds
Timing for main: time 2016-02-05_13:13:46 on domain   3:     .17911 elapsed seconds
Timing for main: time 2016-02-05_13:14:00 on domain   3:     .17765 elapsed seconds
Timing for main: time 2016-02-05_13:13:40 on domain   4:     .20010 elapsed seconds
Timing for main: time 2016-02-05_13:14:00 on domain   4:     .22895 elapsed seconds
Timing for main: time 2016-02-05_13:14:00 on domain   2:    1.61179 elapsed seconds
Timing for main: time 2016-02-05_13:14:00 on domain   1:    5.15168 elapsed seconds
Timing for main: time 2016-02-05_13:14:13 on domain   3:     .17351 elapsed seconds
Timing for main: time 2016-02-05_13:14:26 on domain   3:     .17373 elapsed seconds
Timing for main: time 2016-02-05_13:14:40 on domain   3:     .17592 elapsed seconds
Timing for main: time 2016-02-05_13:14:20 on domain   4:     .20263 elapsed seconds
Timing for main: time 2016-02-05_13:14:40 on domain   4:     .21113 elapsed seconds
Timing for main: time 2016-02-05_13:14:40 on domain   2:    1.60456 elapsed seconds
Timing for main: time 2016-02-05_13:14:53 on domain   3:     .17284 elapsed seconds
Timing for main: time 2016-02-05_13:15:06 on domain   3:     .21452 elapsed seconds
Timing for main: time 2016-02-05_13:15:20 on domain   3:     .19047 elapsed seconds
Timing for main: time 2016-02-05_13:15:00 on domain   4:     .20772 elapsed seconds
Timing for main: time 2016-02-05_13:15:20 on domain   4:     .21303 elapsed seconds
Timing for main: time 2016-02-05_13:15:20 on domain   2:    1.67830 elapsed seconds
Timing for main: time 2016-02-05_13:15:33 on domain   3:     .17629 elapsed seconds
Timing for main: time 2016-02-05_13:15:46 on domain   3:     .18648 elapsed seconds
Timing for main: time 2016-02-05_13:16:00 on domain   3:     .18864 elapsed seconds
Timing for main: time 2016-02-05_13:15:40 on domain   4:     .19910 elapsed seconds
Timing for main: time 2016-02-05_13:16:00 on domain   4:     .21362 elapsed seconds
Timing for main: time 2016-02-05_13:16:00 on domain   2:    1.61869 elapsed seconds
Timing for main: time 2016-02-05_13:16:00 on domain   1:    5.27573 elapsed seconds
Timing for main: time 2016-02-05_13:16:13 on domain   3:     .17412 elapsed seconds
Timing for main: time 2016-02-05_13:16:26 on domain   3:     .18529 elapsed seconds
Timing for main: time 2016-02-05_13:16:40 on domain   3:     .18923 elapsed seconds
Timing for main: time 2016-02-05_13:16:20 on domain   4:     .19595 elapsed seconds
Timing for main: time 2016-02-05_13:16:40 on domain   4:     .20749 elapsed seconds
Timing for main: time 2016-02-05_13:16:40 on domain   2:    1.59973 elapsed seconds
Timing for main: time 2016-02-05_13:16:53 on domain   3:     .17573 elapsed seconds
Timing for main: time 2016-02-05_13:17:06 on domain   3:     .18751 elapsed seconds
Timing for main: time 2016-02-05_13:17:20 on domain   3:     .18643 elapsed seconds
Timing for main: time 2016-02-05_13:17:00 on domain   4:     .20260 elapsed seconds
Timing for main: time 2016-02-05_13:17:20 on domain   4:     .22062 elapsed seconds
Timing for main: time 2016-02-05_13:17:20 on domain   2:    1.64845 elapsed seconds
Timing for main: time 2016-02-05_13:17:33 on domain   3:     .17449 elapsed seconds
[...]
Timing for main: time 2016-02-05_17:36:00 on domain   2:    1.46307 elapsed seconds
Timing for main: time 2016-02-05_17:36:00 on domain   1:    4.64726 elapsed seconds
Timing for main: time 2016-02-05_17:36:13 on domain   3:     .16390 elapsed seconds
Timing for main: time 2016-02-05_17:36:26 on domain   3:     .14635 elapsed seconds
Timing for main: time 2016-02-05_17:36:40 on domain   3:     .14733 elapsed seconds
Timing for main: time 2016-02-05_17:36:20 on domain   4:     .18399 elapsed seconds
Timing for main: time 2016-02-05_17:36:40 on domain   4:     .17254 elapsed seconds
Timing for main: time 2016-02-05_17:36:40 on domain   2:    1.41296 elapsed seconds
Timing for main: time 2016-02-05_17:36:53 on domain   3:     .16103 elapsed seconds
Timing for main: time 2016-02-05_17:37:06 on domain   3:     .14569 elapsed seconds
Timing for main: time 2016-02-05_17:37:20 on domain   3:     .15378 elapsed seconds
Timing for main: time 2016-02-05_17:37:00 on domain   4:     .18538 elapsed seconds
Timing for main: time 2016-02-05_17:37:20 on domain   4:     .17802 elapsed seconds
Timing for main: time 2016-02-05_17:37:20 on domain   2:    1.46823 elapsed seconds
Timing for main: time 2016-02-05_17:37:33 on domain   3:     .16090 elapsed seconds
Timing for main: time 2016-02-05_17:37:46 on domain   3:     .14710 elapsed seconds
Timing for main: time 2016-02-05_17:38:00 on domain   3:     .14926 elapsed seconds
Timing for main: time 2016-02-05_17:37:40 on domain   4:     .18391 elapsed seconds
Timing for main: time 2016-02-05_17:38:00 on domain   4:     .17247 elapsed seconds
Timing for main: time 2016-02-05_17:38:00 on domain   2:    1.40197 elapsed seconds
Timing for main: time 2016-02-05_17:38:00 on domain   1:    4.59525 elapsed seconds
Timing for main: time 2016-02-05_17:38:13 on domain   3:     .16080 elapsed seconds
Timing for main: time 2016-02-05_17:38:26 on domain   3:     .14724 elapsed seconds
Timing for main: time 2016-02-05_17:38:40 on domain   3:     .14778 elapsed seconds
Timing for main: time 2016-02-05_17:38:20 on domain   4:     .18447 elapsed seconds
Timing for main: time 2016-02-05_17:38:40 on domain   4:     .17267 elapsed seconds
Timing for main: time 2016-02-05_17:38:40 on domain   2:    1.41333 elapsed seconds
Timing for main: time 2016-02-05_17:38:53 on domain   3:     .16136 elapsed seconds
Timing for main: time 2016-02-05_17:39:06 on domain   3:     .14894 elapsed seconds
Timing for main: time 2016-02-05_17:39:20 on domain   3:     .14753 elapsed seconds
Timing for main: time 2016-02-05_17:39:00 on domain   4:     .18368 elapsed seconds
Timing for main: time 2016-02-05_17:39:20 on domain   4:     .17381 elapsed seconds
Timing for main: time 2016-02-05_17:39:20 on domain   2:    1.40580 elapsed seconds
Timing for main: time 2016-02-05_17:39:33 on domain   3:     .16150 elapsed seconds
Timing for main: time 2016-02-05_17:39:46 on domain   3:     .14719 elapsed seconds
Timing for main: time 2016-02-05_17:40:00 on domain   3:     .14737 elapsed seconds
Timing for main: time 2016-02-05_17:39:40 on domain   4:     .19136 elapsed seconds
Timing for main: time 2016-02-05_17:40:00 on domain   4:     .17882 elapsed seconds
Timing for main: time 2016-02-05_17:40:00 on domain   2:    1.46181 elapsed seconds
Timing for main: time 2016-02-05_17:40:00 on domain   1:    4.59382 elapsed seconds
Timing for main: time 2016-02-05_17:40:13 on domain   3:     .16126 elapsed seconds
Timing for main: time 2016-02-05_17:40:26 on domain   3:     .14759 elapsed seconds
Timing for main: time 2016-02-05_17:40:40 on domain   3:     .14784 elapsed seconds
Timing for main: time 2016-02-05_17:40:20 on domain   4:     .18380 elapsed seconds
Timing for main: time 2016-02-05_17:40:40 on domain   4:     .17823 elapsed seconds
Timing for main: time 2016-02-05_17:40:40 on domain   2:    1.41643 elapsed seconds
Timing for main: time 2016-02-05_17:40:53 on domain   3:     .17486 elapsed seconds
Timing for main: time 2016-02-05_17:41:06 on domain   3:     .14844 elapsed seconds
Timing for main: time 2016-02-05_17:41:20 on domain   3:     .14751 elapsed seconds
Timing for main: time 2016-02-05_17:41:00 on domain   4:     .18400 elapsed seconds
Timing for main: time 2016-02-05_17:41:20 on domain   4:     .17247 elapsed seconds
Timing for main: time 2016-02-05_17:41:20 on domain   2:    1.42467 elapsed seconds
Timing for main: time 2016-02-05_17:41:33 on domain   3:     .16195 elapsed seconds
Timing for main: time 2016-02-05_17:41:46 on domain   3:     .14923 elapsed seconds
Timing for main: time 2016-02-05_17:42:00 on domain   3:     .14732 elapsed seconds
Timing for main: time 2016-02-05_17:41:40 on domain   4:     .18390 elapsed seconds
Timing for main: time 2016-02-05_17:42:00 on domain   4:     .17253 elapsed seconds
Timing for main: time 2016-02-05_17:42:00 on domain   2:    1.40585 elapsed seconds
Timing for main: time 2016-02-05_17:42:00 on domain   1:    4.56404 elapsed seconds
Timing for main: time 2016-02-05_17:42:13 on domain   3:     .16135 elapsed seconds
Timing for main: time 2016-02-05_17:42:26 on domain   3:     .15345 elapsed seconds
Timing for main: time 2016-02-05_17:42:40 on domain   3:     .14747 elapsed seconds
Timing for main: time 2016-02-05_17:42:20 on domain   4:     .18758 elapsed seconds
Timing for main: time 2016-02-05_17:42:40 on domain   4:     .17227 elapsed seconds
Timing for main: time 2016-02-05_17:42:40 on domain   2:    1.41846 elapsed seconds
Timing for main: time 2016-02-05_17:42:53 on domain   3:     .16278 elapsed seconds
Timing for main: time 2016-02-05_17:43:06 on domain   3:     .14697 elapsed seconds
Timing for main: time 2016-02-05_17:43:20 on domain   3:     .14798 elapsed seconds
Timing for main: time 2016-02-05_17:43:00 on domain   4:     .18414 elapsed seconds
Timing for main: time 2016-02-05_17:43:20 on domain   4:     .17405 elapsed seconds
Timing for main: time 2016-02-05_17:43:20 on domain   2:    1.40516 elapsed seconds
Timing for main: time 2016-02-05_17:43:33 on domain   3:     .16115 elapsed seconds
Timing for main: time 2016-02-05_17:43:46 on domain   3:     .14725 elapsed seconds
Timing for main: time 2016-02-05_17:44:00 on domain   3:     .14732 elapsed seconds
Timing for main: time 2016-02-05_17:43:40 on domain   4:     .18428 elapsed seconds
Timing for main: time 2016-02-05_17:44:00 on domain   4:     .17237 elapsed seconds
Timing for main: time 2016-02-05_17:44:00 on domain   2:    1.40536 elapsed seconds
Timing for main: time 2016-02-05_17:44:00 on domain   1:    4.54396 elapsed seconds
Timing for main: time 2016-02-05_17:44:13 on domain   3:     .16151 elapsed seconds
Timing for main: time 2016-02-05_17:44:26 on domain   3:     .21076 elapsed seconds
Timing for main: time 2016-02-05_17:44:40 on domain   3:     .17398 elapsed seconds
Timing for main: time 2016-02-05_17:44:20 on domain   4:     .18386 elapsed seconds
Timing for main: time 2016-02-05_17:44:40 on domain   4:     .17237 elapsed seconds
Timing for main: time 2016-02-05_17:44:40 on domain   2:    1.50016 elapsed seconds
Timing for main: time 2016-02-05_17:44:53 on domain   3:     .16146 elapsed seconds
Timing for main: time 2016-02-05_17:45:06 on domain   3:     .14713 elapsed seconds
Timing for main: time 2016-02-05_17:45:20 on domain   3:     .14760 elapsed seconds
Timing for main: time 2016-02-05_17:45:00 on domain   4:     .19136 elapsed seconds
Timing for main: time 2016-02-05_17:45:20 on domain   4:     .17277 elapsed seconds
Timing for main: time 2016-02-05_17:45:20 on domain   2:    1.41143 elapsed seconds
Timing for main: time 2016-02-05_17:45:33 on domain   3:     .16154 elapsed seconds
Timing for main: time 2016-02-05_17:45:46 on domain   3:     .14990 elapsed seconds
Timing for main: time 2016-02-05_17:46:00 on domain   3:     .14721 elapsed seconds
Timing for main: time 2016-02-05_17:45:40 on domain   4:     .18393 elapsed seconds
Timing for main: time 2016-02-05_17:46:00 on domain   4:     .17268 elapsed seconds
Timing for main: time 2016-02-05_17:46:00 on domain   2:    1.40518 elapsed seconds
Timing for main: time 2016-02-05_17:46:00 on domain   1:    4.62915 elapsed seconds
Timing for main: time 2016-02-05_17:46:13 on domain   3:     .16177 elapsed seconds
Timing for main: time 2016-02-05_17:46:26 on domain   3:     .14680 elapsed seconds
Timing for main: time 2016-02-05_17:46:40 on domain   3:     .14766 elapsed seconds
Timing for main: time 2016-02-05_17:46:20 on domain   4:     .18347 elapsed seconds
Timing for main: time 2016-02-05_17:46:40 on domain   4:     .17437 elapsed seconds
Timing for main: time 2016-02-05_17:46:40 on domain   2:    1.41984 elapsed seconds
Timing for main: time 2016-02-05_17:46:53 on domain   3:     .16180 elapsed seconds
Timing for main: time 2016-02-05_17:47:06 on domain   3:     .14634 elapsed seconds
Timing for main: time 2016-02-05_17:47:20 on domain   3:     .14774 elapsed seconds
Timing for main: time 2016-02-05_17:47:00 on domain   4:     .18362 elapsed seconds
Timing for main: time 2016-02-05_17:47:20 on domain   4:     .17353 elapsed seconds
Timing for main: time 2016-02-05_17:47:20 on domain   2:    1.40266 elapsed seconds
Timing for main: time 2016-02-05_17:47:33 on domain   3:     .17259 elapsed seconds
Timing for main: time 2016-02-05_17:47:46 on domain   3:     .14754 elapsed seconds
Timing for main: time 2016-02-05_17:48:00 on domain   3:     .14730 elapsed seconds
Timing for main: time 2016-02-05_17:47:40 on domain   4:     .18362 elapsed seconds
Timing for main: time 2016-02-05_17:48:00 on domain   4:     .17300 elapsed seconds
Timing for main: time 2016-02-05_17:48:00 on domain   2:    1.41424 elapsed seconds
Timing for main: time 2016-02-05_17:48:00 on domain   1:    4.55738 elapsed seconds
Timing for main: time 2016-02-05_17:48:13 on domain   3:     .16111 elapsed seconds
Timing for main: time 2016-02-05_17:48:26 on domain   3:     .14702 elapsed seconds
Timing for main: time 2016-02-05_17:48:40 on domain   3:     .14758 elapsed seconds
Timing for main: time 2016-02-05_17:48:20 on domain   4:     .18373 elapsed seconds
Timing for main: time 2016-02-05_17:48:40 on domain   4:     .17245 elapsed seconds
Timing for main: time 2016-02-05_17:48:40 on domain   2:    1.46831 elapsed seconds
Timing for main: time 2016-02-05_17:48:53 on domain   3:     .16088 elapsed seconds
Timing for main: time 2016-02-05_17:49:06 on domain   3:     .15265 elapsed seconds
Timing for main: time 2016-02-05_17:49:20 on domain   3:     .14718 elapsed seconds
Timing for main: time 2016-02-05_17:49:00 on domain   4:     .18341 elapsed seconds
Timing for main: time 2016-02-05_17:49:20 on domain   4:     .17281 elapsed seconds
Timing for main: time 2016-02-05_17:49:20 on domain   2:    1.41064 elapsed seconds
Timing for main: time 2016-02-05_17:49:33 on domain   3:     .16201 elapsed seconds
Timing for main: time 2016-02-05_17:49:46 on domain   3:     .14681 elapsed seconds
Timing for main: time 2016-02-05_17:50:00 on domain   3:     .14732 elapsed seconds
Timing for main: time 2016-02-05_17:49:40 on domain   4:     .18651 elapsed seconds
Timing for main: time 2016-02-05_17:50:00 on domain   4:     .18080 elapsed seconds
Timing for main: time 2016-02-05_17:50:00 on domain   2:    1.41885 elapsed seconds
Timing for main: time 2016-02-05_17:50:00 on domain   1:    4.61025 elapsed seconds
Timing for main: time 2016-02-05_17:50:13 on domain   3:     .16469 elapsed seconds
Timing for main: time 2016-02-05_17:50:26 on domain   3:     .16778 elapsed seconds
Timing for main: time 2016-02-05_17:50:40 on domain   3:     .14723 elapsed seconds
Timing for main: time 2016-02-05_17:50:20 on domain   4:     .18405 elapsed seconds
Timing for main: time 2016-02-05_17:50:40 on domain   4:     .17256 elapsed seconds
Timing for main: time 2016-02-05_17:50:40 on domain   2:    1.43490 elapsed seconds
Timing for main: time 2016-02-05_17:50:53 on domain   3:     .16156 elapsed seconds
Timing for main: time 2016-02-05_17:51:06 on domain   3:     .14743 elapsed seconds
Timing for main: time 2016-02-05_17:51:20 on domain   3:     .14721 elapsed seconds
Timing for main: time 2016-02-05_17:51:00 on domain   4:     .18373 elapsed seconds
Timing for main: time 2016-02-05_17:51:20 on domain   4:     .17270 elapsed seconds
Timing for main: time 2016-02-05_17:51:20 on domain   2:    1.40241 elapsed seconds
Timing for main: time 2016-02-05_17:51:33 on domain   3:     .16231 elapsed seconds
Timing for main: time 2016-02-05_17:51:46 on domain   3:     .15061 elapsed seconds
Timing for main: time 2016-02-05_17:52:00 on domain   3:     .14780 elapsed seconds
Timing for main: time 2016-02-05_17:51:40 on domain   4:     .18423 elapsed seconds
Timing for main: time 2016-02-05_17:52:00 on domain   4:     .20744 elapsed seconds
Timing for main: time 2016-02-05_17:52:00 on domain   2:    1.44998 elapsed seconds
Timing for main: time 2016-02-05_17:52:00 on domain   1:    4.59772 elapsed seconds
Timing for main: time 2016-02-05_17:52:13 on domain   3:     .16144 elapsed seconds
Timing for main: time 2016-02-05_17:52:26 on domain   3:     .14723 elapsed seconds
Timing for main: time 2016-02-05_17:52:40 on domain   3:     .15342 elapsed seconds
Timing for main: time 2016-02-05_17:52:20 on domain   4:     .18393 elapsed seconds
Timing for main: time 2016-02-05_17:52:40 on domain   4:     .17280 elapsed seconds
Timing for main: time 2016-02-05_17:52:40 on domain   2:    1.41653 elapsed seconds
Timing for main: time 2016-02-05_17:52:53 on domain   3:     .16470 elapsed seconds
Timing for main: time 2016-02-05_17:53:06 on domain   3:     .14697 elapsed seconds
Timing for main: time 2016-02-05_17:53:20 on domain   3:     .14693 elapsed seconds
Timing for main: time 2016-02-05_17:53:00 on domain   4:     .18381 elapsed seconds
Timing for main: time 2016-02-05_17:53:20 on domain   4:     .17268 elapsed seconds
Timing for main: time 2016-02-05_17:53:20 on domain   2:    1.40531 elapsed seconds
Timing for main: time 2016-02-05_17:53:33 on domain   3:     .16080 elapsed seconds
Timing for main: time 2016-02-05_17:53:46 on domain   3:     .14733 elapsed seconds
Timing for main: time 2016-02-05_17:54:00 on domain   3:     .14714 elapsed seconds
Timing for main: time 2016-02-05_17:53:40 on domain   4:     .18387 elapsed seconds
Timing for main: time 2016-02-05_17:54:00 on domain   4:     .17297 elapsed seconds
Timing for main: time 2016-02-05_17:54:00 on domain   2:    1.40311 elapsed seconds
Timing for main: time 2016-02-05_17:54:00 on domain   1:    4.57475 elapsed seconds
Timing for main: time 2016-02-05_17:54:13 on domain   3:     .16223 elapsed seconds
Timing for main: time 2016-02-05_17:54:26 on domain   3:     .14711 elapsed seconds
Timing for main: time 2016-02-05_17:54:40 on domain   3:     .14750 elapsed seconds
Timing for main: time 2016-02-05_17:54:20 on domain   4:     .18362 elapsed seconds
Timing for main: time 2016-02-05_17:54:40 on domain   4:     .17274 elapsed seconds
Timing for main: time 2016-02-05_17:54:40 on domain   2:    1.41110 elapsed seconds
Timing for main: time 2016-02-05_17:54:53 on domain   3:     .16143 elapsed seconds
Timing for main: time 2016-02-05_17:55:06 on domain   3:     .14744 elapsed seconds
Timing for main: time 2016-02-05_17:55:20 on domain   3:     .14765 elapsed seconds
Timing for main: time 2016-02-05_17:55:00 on domain   4:     .18898 elapsed seconds
Timing for main: time 2016-02-05_17:55:20 on domain   4:     .17251 elapsed seconds
Timing for main: time 2016-02-05_17:55:20 on domain   2:    1.41275 elapsed seconds
Timing for main: time 2016-02-05_17:55:33 on domain   3:     .16138 elapsed seconds
Timing for main: time 2016-02-05_17:55:46 on domain   3:     .14703 elapsed seconds
Timing for main: time 2016-02-05_17:56:00 on domain   3:     .14741 elapsed seconds
Timing for main: time 2016-02-05_17:55:40 on domain   4:     .18441 elapsed seconds
Timing for main: time 2016-02-05_17:56:00 on domain   4:     .17175 elapsed seconds
Timing for main: time 2016-02-05_17:56:00 on domain   2:    1.40146 elapsed seconds
Timing for main: time 2016-02-05_17:56:00 on domain   1:    4.54076 elapsed seconds
Timing for main: time 2016-02-05_17:56:13 on domain   3:     .16156 elapsed seconds
Timing for main: time 2016-02-05_17:56:26 on domain   3:     .14728 elapsed seconds
Timing for main: time 2016-02-05_17:56:40 on domain   3:     .14892 elapsed seconds
Timing for main: time 2016-02-05_17:56:20 on domain   4:     .18377 elapsed seconds
Timing for main: time 2016-02-05_17:56:40 on domain   4:     .17257 elapsed seconds
Timing for main: time 2016-02-05_17:56:40 on domain   2:    1.41342 elapsed seconds
Timing for main: time 2016-02-05_17:56:53 on domain   3:     .16192 elapsed seconds
Timing for main: time 2016-02-05_17:57:06 on domain   3:     .14715 elapsed seconds
Timing for main: time 2016-02-05_17:57:20 on domain   3:     .14767 elapsed seconds
Timing for main: time 2016-02-05_17:57:00 on domain   4:     .18413 elapsed seconds
Timing for main: time 2016-02-05_17:57:20 on domain   4:     .17243 elapsed seconds
Timing for main: time 2016-02-05_17:57:20 on domain   2:    1.41218 elapsed seconds
Timing for main: time 2016-02-05_17:57:33 on domain   3:     .16120 elapsed seconds
Timing for main: time 2016-02-05_17:57:46 on domain   3:     .15351 elapsed seconds
Timing for main: time 2016-02-05_17:58:00 on domain   3:     .14726 elapsed seconds
Timing for main: time 2016-02-05_17:57:40 on domain   4:     .18377 elapsed seconds
Timing for main: time 2016-02-05_17:58:00 on domain   4:     .17483 elapsed seconds
Timing for main: time 2016-02-05_17:58:00 on domain   2:    1.41476 elapsed seconds
Timing for main: time 2016-02-05_17:58:00 on domain   1:    4.55449 elapsed seconds
  photolysis_driver: called for domain  1
Timing for main: time 2016-02-05_17:58:13 on domain   3:     .16109 elapsed seconds
Timing for main: time 2016-02-05_17:58:26 on domain   3:     .14713 elapsed seconds
Timing for main: time 2016-02-05_17:58:40 on domain   3:     .14728 elapsed seconds
Timing for main: time 2016-02-05_17:58:20 on domain   4:     .18390 elapsed seconds
Timing for main: time 2016-02-05_17:58:40 on domain   4:     .17423 elapsed seconds
Timing for main: time 2016-02-05_17:58:40 on domain   2:    1.41112 elapsed seconds
Timing for main: time 2016-02-05_17:58:53 on domain   3:     .18526 elapsed seconds
Timing for main: time 2016-02-05_17:59:06 on domain   3:     .17360 elapsed seconds
Timing for main: time 2016-02-05_17:59:20 on domain   3:     .14813 elapsed seconds
Timing for main: time 2016-02-05_17:59:00 on domain   4:     .18297 elapsed seconds
Timing for main: time 2016-02-05_17:59:20 on domain   4:     .17239 elapsed seconds
Timing for main: time 2016-02-05_17:59:20 on domain   2:    1.45283 elapsed seconds
  photolysis_driver: called for domain  2
Timing for main: time 2016-02-05_17:59:33 on domain   3:     .16121 elapsed seconds
Timing for main: time 2016-02-05_17:59:46 on domain   3:     .14657 elapsed seconds
  photolysis_driver: called for domain  3
Timing for main: time 2016-02-05_18:00:00 on domain   3:     .84461 elapsed seconds
Timing for Writing wrfout_d03_2016-02-05_18:00:00 for domain        3:    1.86356 elapsed seconds
Timing for main: time 2016-02-05_17:59:40 on domain   4:     .21214 elapsed seconds
  photolysis_driver: called for domain  4
Timing for main: time 2016-02-05_18:00:00 on domain   4:    1.04833 elapsed seconds
Timing for Writing wrfout_d04_2016-02-05_18:00:00 for domain        4:    2.04537 elapsed seconds
Timing for main: time 2016-02-05_18:00:00 on domain   2:    7.77616 elapsed seconds
Timing for Writing wrfout_d02_2016-02-05_18:00:00 for domain        2:    2.84673 elapsed seconds
Timing for main: time 2016-02-05_18:00:00 on domain   1:   14.25352 elapsed seconds
Timing for Writing wrfout_d01_2016-02-05_18:00:00 for domain        1:    2.99939 elapsed seconds
 d01 2016-02-05_18:00:00 wrf: SUCCESS COMPLETE WRF
