taskid: 0 hostname: p10a51.pbm.ihost.com
  Ntasks in X  16 , ntasks in Y  20
 Setting blank km_opt entries to domain #1 values.
  --> The km_opt entry in the namelist.input is now max_domains.
 Setting blank diff_opt entries to domain #1 values.
  --> The diff_opt entry in the namelist.input is now max_domains.
 --- WARNING: traj_opt is zero, but num_traj is not zero; setting num_traj to zero.
 --- NOTE: hypsometric_opt is 2, setting adjust_heights = F
 --- NOTE: sst_update is 0, setting io_form_auxinput4 = 0 and auxinput4_interval = 0 for all domains
 --- NOTE: sst_update is 0, setting io_form_auxinput4 = 0 and auxinput4_interval = 0 for all domains
 --- NOTE: sst_update is 0, setting io_form_auxinput4 = 0 and auxinput4_interval = 0 for all domains
 --- NOTE: sst_update is 0, setting io_form_auxinput4 = 0 and auxinput4_interval = 0 for all domains
 --- NOTE: grid_fdda is 0 for domain      1, setting gfdda interval and ending time to 0 for that domain.
 --- NOTE: both grid_sfdda and pxlsm_soil_nudge are 0 for domain      1, setting sgfdda interval and ending time to 0 for that domain.
 --- NOTE: obs_nudge_opt is 0 for domain      1, setting obs nudging interval and ending time to 0 for that domain.
 --- NOTE: grid_fdda is 0 for domain      2, setting gfdda interval and ending time to 0 for that domain.
 --- NOTE: both grid_sfdda and pxlsm_soil_nudge are 0 for domain      2, setting sgfdda interval and ending time to 0 for that domain.
 --- NOTE: obs_nudge_opt is 0 for domain      2, setting obs nudging interval and ending time to 0 for that domain.
 --- NOTE: grid_fdda is 0 for domain      3, setting gfdda interval and ending time to 0 for that domain.
 --- NOTE: both grid_sfdda and pxlsm_soil_nudge are 0 for domain      3, setting sgfdda interval and ending time to 0 for that domain.
 --- NOTE: obs_nudge_opt is 0 for domain      3, setting obs nudging interval and ending time to 0 for that domain.
 --- NOTE: grid_fdda is 0 for domain      4, setting gfdda interval and ending time to 0 for that domain.
 --- NOTE: both grid_sfdda and pxlsm_soil_nudge are 0 for domain      4, setting sgfdda interval and ending time to 0 for that domain.
 --- NOTE: obs_nudge_opt is 0 for domain      4, setting obs nudging interval and ending time to 0 for that domain.
 bl_pbl_physics /= 4, implies mfshconv must be 0, resetting
 --- NOTE: num_soil_layers has been set to      4
 WRF V3.6 MODEL
  *************************************
  Parent domain
  ids,ide,jds,jde  1 271 1 181
  ims,ime,jms,jme  -4 24 -4 16
  ips,ipe,jps,jpe  1 17 1 9
  *************************************
 DYNAMICS OPTION: Eulerian Mass Coordinate
    alloc_space_field: domain  1 ,  63379240  bytes allocated
   med_initialdata_input: calling input_input
Timing for processing wrfinput file (stream 0) for domain        1:    4.99903 elapsed seconds
 INPUT LandUse = "USGS"
  LANDUSE TYPE = "USGS" FOUND 33  CATEGORIES 2  SEASONS WATER CATEGORY =  16  SNOW CATEGORY =  24
 INITIALIZE THREE Noah LSM RELATED TABLES
  LANDUSE TYPE = USGS FOUND 27  CATEGORIES
  INPUT SOIL TEXTURE CLASSIFICATION = STAS
  SOIL TEXTURE CLASSIFICATION = STAS FOUND 19  CATEGORIES
 *********************************************************************
 *             PROGRAM:WRF/CHEM V3.6 MODEL
 *                                                                   *
 *    PLEASE REPORT ANY BUGS TO WRF/CHEM HELP at                     *
 *                                                                   *
 *              wrfchemhelp.gsd@noaa.gov                             *
 *                                                                   *
 *********************************************************************
 WARNING: dust option 1 currently works only with the GOCART aerosol option.
 WARNING: sea salt option 1 currently works only with the GOCART aerosol option.
  *************************************
  Nesting domain
  ids,ide,jds,jde  1 361 1 253
  ims,ime,jms,jme  -4 33 -4 24
  ips,ipe,jps,jpe  1 23 1 13
  INTERMEDIATE domain
  ids,ide,jds,jde  74 199 47 136
  ims,ime,jms,jme  69 93 42 62
  ips,ipe,jps,jpe  72 83 45 52
  *************************************
 d01 2016-02-05_12:00:00  alloc_space_field: domain  2 ,  111106180  bytes allocated
 d01 2016-02-05_12:00:00 *** Initializing nest domain # 2 from an input file. ***
 d01 2016-02-05_12:00:00 med_initialdata_input: calling input_input
Timing for processing wrfinput file (stream 0) for domain        2:    7.84992 elapsed seconds
 INPUT LandUse = "USGS"
  LANDUSE TYPE = "USGS" FOUND 33  CATEGORIES 2  SEASONS WATER CATEGORY =  16  SNOW CATEGORY =  24
 INITIALIZE THREE Noah LSM RELATED TABLES
  LANDUSE TYPE = USGS FOUND 27  CATEGORIES
  INPUT SOIL TEXTURE CLASSIFICATION = STAS
  SOIL TEXTURE CLASSIFICATION = STAS FOUND 19  CATEGORIES
 *********************************************************************
 *             PROGRAM:WRF/CHEM V3.6 MODEL
 *                                                                   *
 *    PLEASE REPORT ANY BUGS TO WRF/CHEM HELP at                     *
 *                                                                   *
 *              wrfchemhelp.gsd@noaa.gov                             *
 *                                                                   *
 *********************************************************************
 WARNING: dust option 1 currently works only with the GOCART aerosol option.
 WARNING: sea salt option 1 currently works only with the GOCART aerosol option.
 INPUT LandUse = "USGS"
  LANDUSE TYPE = "USGS" FOUND 33  CATEGORIES 2  SEASONS WATER CATEGORY =  16  SNOW CATEGORY =  24
 INITIALIZE THREE Noah LSM RELATED TABLES
  LANDUSE TYPE = USGS FOUND 27  CATEGORIES
  INPUT SOIL TEXTURE CLASSIFICATION = STAS
  SOIL TEXTURE CLASSIFICATION = STAS FOUND 19  CATEGORIES
 *********************************************************************
 *             PROGRAM:WRF/CHEM V3.6 MODEL
 *                                                                   *
 *    PLEASE REPORT ANY BUGS TO WRF/CHEM HELP at                     *
 *                                                                   *
 *              wrfchemhelp.gsd@noaa.gov                             *
 *                                                                   *
 *********************************************************************
 WARNING: dust option 1 currently works only with the GOCART aerosol option.
 WARNING: sea salt option 1 currently works only with the GOCART aerosol option.
 INPUT LandUse = "USGS"
  LANDUSE TYPE = "USGS" FOUND 33  CATEGORIES 2  SEASONS WATER CATEGORY =  16  SNOW CATEGORY =  24
 INITIALIZE THREE Noah LSM RELATED TABLES
  LANDUSE TYPE = USGS FOUND 27  CATEGORIES
  INPUT SOIL TEXTURE CLASSIFICATION = STAS
  SOIL TEXTURE CLASSIFICATION = STAS FOUND 19  CATEGORIES
 *********************************************************************
 *             PROGRAM:WRF/CHEM V3.6 MODEL
 *                                                                   *
 *    PLEASE REPORT ANY BUGS TO WRF/CHEM HELP at                     *
 *                                                                   *
 *              wrfchemhelp.gsd@noaa.gov                             *
 *                                                                   *
 *********************************************************************
 WARNING: dust option 1 currently works only with the GOCART aerosol option.
 WARNING: sea salt option 1 currently works only with the GOCART aerosol option.
Timing for Writing wrfout_d01_2016-02-05_12:00:00 for domain        1:    2.79777 elapsed seconds
  mediation_integrate: med_read_wrf_chem_emissions: Open file wrfchemi_12z_d01
  HOURLY EMISSIONS UPDATE TIME         .0        .0
 mediation_integrate: med_read_wrf_chem_emissions: Read emissions for time 2016-02-05_12:00:00
 **WARNING** Time in input file not being checked **WARNING**
Timing for processing lateral boundary for domain        1:    4.14456 elapsed seconds
  Tile Strategy is not specified. Assuming 1D-Y
 WRF TILE   1 IS      1 IE     17 JS      1 JE      9
 WRF NUMBER OF TILES =   1
  photolysis_driver: called for domain  1
  *************************************
  Nesting domain
  ids,ide,jds,jde  1 307 1 241
  ims,ime,jms,jme  -4 30 -4 24
  ips,ipe,jps,jpe  1 20 1 12
  INTERMEDIATE domain
  ids,ide,jds,jde  124 231 35 120
  ims,ime,jms,jme  119 142 30 50
  ips,ipe,jps,jpe  122 132 33 40
  *************************************
 d02 2016-02-05_12:00:00  alloc_space_field: domain  3 ,  102639276  bytes allocated
 d02 2016-02-05_12:00:00  alloc_space_field: domain  3 ,  6348384  bytes allocated
 d02 2016-02-05_12:00:00 *** Initializing nest domain # 3 from an input file. ***
 d02 2016-02-05_12:00:00 med_initialdata_input: calling input_input
Timing for processing wrfinput file (stream 0) for domain        3:    6.36636 elapsed seconds
 INPUT LandUse = "USGS"
  LANDUSE TYPE = "USGS" FOUND 33  CATEGORIES 2  SEASONS WATER CATEGORY =  16  SNOW CATEGORY =  24
 INITIALIZE THREE Noah LSM RELATED TABLES
  LANDUSE TYPE = USGS FOUND 27  CATEGORIES
  INPUT SOIL TEXTURE CLASSIFICATION = STAS
  SOIL TEXTURE CLASSIFICATION = STAS FOUND 19  CATEGORIES
 *********************************************************************
 *             PROGRAM:WRF/CHEM V3.6 MODEL
 *                                                                   *
 *    PLEASE REPORT ANY BUGS TO WRF/CHEM HELP at                     *
 *                                                                   *
 *              wrfchemhelp.gsd@noaa.gov                             *
 *                                                                   *
 *********************************************************************
 WARNING: dust option 1 currently works only with the GOCART aerosol option.
 WARNING: sea salt option 1 currently works only with the GOCART aerosol option.
 INPUT LandUse = "USGS"
  LANDUSE TYPE = "USGS" FOUND 33  CATEGORIES 2  SEASONS WATER CATEGORY =  16  SNOW CATEGORY =  24
 INITIALIZE THREE Noah LSM RELATED TABLES
  LANDUSE TYPE = USGS FOUND 27  CATEGORIES
  INPUT SOIL TEXTURE CLASSIFICATION = STAS
  SOIL TEXTURE CLASSIFICATION = STAS FOUND 19  CATEGORIES
 *********************************************************************
 *             PROGRAM:WRF/CHEM V3.6 MODEL
 *                                                                   *
 *    PLEASE REPORT ANY BUGS TO WRF/CHEM HELP at                     *
 *                                                                   *
 *              wrfchemhelp.gsd@noaa.gov                             *
 *                                                                   *
 *********************************************************************
 WARNING: dust option 1 currently works only with the GOCART aerosol option.
 WARNING: sea salt option 1 currently works only with the GOCART aerosol option.
 INPUT LandUse = "USGS"
  LANDUSE TYPE = "USGS" FOUND 33  CATEGORIES 2  SEASONS WATER CATEGORY =  16  SNOW CATEGORY =  24
 INITIALIZE THREE Noah LSM RELATED TABLES
  LANDUSE TYPE = USGS FOUND 27  CATEGORIES
  INPUT SOIL TEXTURE CLASSIFICATION = STAS
  SOIL TEXTURE CLASSIFICATION = STAS FOUND 19  CATEGORIES
 *********************************************************************
 *             PROGRAM:WRF/CHEM V3.6 MODEL
 *                                                                   *
 *    PLEASE REPORT ANY BUGS TO WRF/CHEM HELP at                     *
 *                                                                   *
 *              wrfchemhelp.gsd@noaa.gov                             *
 *                                                                   *
 *********************************************************************
 WARNING: dust option 1 currently works only with the GOCART aerosol option.
 WARNING: sea salt option 1 currently works only with the GOCART aerosol option.
  *************************************
  Nesting domain
  ids,ide,jds,jde  1 217 1 388
  ims,ime,jms,jme  -4 24 -4 30
  ips,ipe,jps,jpe  1 14 1 20
  INTERMEDIATE domain
  ids,ide,jds,jde  225 302 83 217
  ims,ime,jms,jme  220 241 78 101
  ips,ipe,jps,jpe  223 231 81 91
  *************************************
 d02 2016-02-05_12:00:00  alloc_space_field: domain  4 ,  102706220  bytes allocated
 d02 2016-02-05_12:00:00 *** Initializing nest domain # 4 from an input file. ***
 d02 2016-02-05_12:00:00 med_initialdata_input: calling input_input
Timing for processing wrfinput file (stream 0) for domain        4:    7.74669 elapsed seconds
 INPUT LandUse = "USGS"
  LANDUSE TYPE = "USGS" FOUND 33  CATEGORIES 2  SEASONS WATER CATEGORY =  16  SNOW CATEGORY =  24
 INITIALIZE THREE Noah LSM RELATED TABLES
  LANDUSE TYPE = USGS FOUND 27  CATEGORIES
  INPUT SOIL TEXTURE CLASSIFICATION = STAS
  SOIL TEXTURE CLASSIFICATION = STAS FOUND 19  CATEGORIES
 *********************************************************************
 *             PROGRAM:WRF/CHEM V3.6 MODEL
 *                                                                   *
 *    PLEASE REPORT ANY BUGS TO WRF/CHEM HELP at                     *
 *                                                                   *
 *              wrfchemhelp.gsd@noaa.gov                             *
 *                                                                   *
 *********************************************************************
 WARNING: dust option 1 currently works only with the GOCART aerosol option.
 WARNING: sea salt option 1 currently works only with the GOCART aerosol option.
 INPUT LandUse = "USGS"
  LANDUSE TYPE = "USGS" FOUND 33  CATEGORIES 2  SEASONS WATER CATEGORY =  16  SNOW CATEGORY =  24
 INITIALIZE THREE Noah LSM RELATED TABLES
  LANDUSE TYPE = USGS FOUND 27  CATEGORIES
  INPUT SOIL TEXTURE CLASSIFICATION = STAS
  SOIL TEXTURE CLASSIFICATION = STAS FOUND 19  CATEGORIES
 *********************************************************************
 *             PROGRAM:WRF/CHEM V3.6 MODEL
 *                                                                   *
 *    PLEASE REPORT ANY BUGS TO WRF/CHEM HELP at                     *
 *                                                                   *
 *              wrfchemhelp.gsd@noaa.gov                             *
 *                                                                   *
 *********************************************************************
 WARNING: dust option 1 currently works only with the GOCART aerosol option.
 WARNING: sea salt option 1 currently works only with the GOCART aerosol option.
 INPUT LandUse = "USGS"
  LANDUSE TYPE = "USGS" FOUND 33  CATEGORIES 2  SEASONS WATER CATEGORY =  16  SNOW CATEGORY =  24
 INITIALIZE THREE Noah LSM RELATED TABLES
  LANDUSE TYPE = USGS FOUND 27  CATEGORIES
  INPUT SOIL TEXTURE CLASSIFICATION = STAS
  SOIL TEXTURE CLASSIFICATION = STAS FOUND 19  CATEGORIES
 *********************************************************************
 *             PROGRAM:WRF/CHEM V3.6 MODEL
 *                                                                   *
 *    PLEASE REPORT ANY BUGS TO WRF/CHEM HELP at                     *
 *                                                                   *
 *              wrfchemhelp.gsd@noaa.gov                             *
 *                                                                   *
 *********************************************************************
 WARNING: dust option 1 currently works only with the GOCART aerosol option.
 WARNING: sea salt option 1 currently works only with the GOCART aerosol option.
Timing for Writing wrfout_d02_2016-02-05_12:00:00 for domain        2:    3.34197 elapsed seconds
  mediation_integrate: med_read_wrf_chem_emissions: Open file wrfchemi_12z_d02
  HOURLY EMISSIONS UPDATE TIME         .0        .0
 mediation_integrate: med_read_wrf_chem_emissions: Read emissions for time 2016-02-05_12:00:00
 **WARNING** Time in input file not being checked **WARNING**
  Tile Strategy is not specified. Assuming 1D-Y
 WRF TILE   1 IS      1 IE     23 JS      1 JE     13
 WRF NUMBER OF TILES =   1
  photolysis_driver: called for domain  2
Timing for Writing wrfout_d03_2016-02-05_12:00:00 for domain        3:    3.12970 elapsed seconds
  mediation_integrate: med_read_wrf_chem_emissions: Open file wrfchemi_12z_d03
  HOURLY EMISSIONS UPDATE TIME         .0        .0
 mediation_integrate: med_read_wrf_chem_emissions: Read emissions for time 2016-02-05_12:00:00
 **WARNING** Time in input file not being checked **WARNING**
  Tile Strategy is not specified. Assuming 1D-Y
 WRF TILE   1 IS      1 IE     20 JS      1 JE     12
 WRF NUMBER OF TILES =   1
  photolysis_driver: called for domain  3
Timing for main: time 2016-02-05_12:00:13 on domain   3:    6.16636 elapsed seconds
Timing for main: time 2016-02-05_12:00:26 on domain   3:     .19834 elapsed seconds
Timing for main: time 2016-02-05_12:00:40 on domain   3:     .19464 elapsed seconds
Timing for Writing wrfout_d04_2016-02-05_12:00:00 for domain        4:    3.32622 elapsed seconds
  mediation_integrate: med_read_wrf_chem_emissions: Open file wrfchemi_12z_d04
  HOURLY EMISSIONS UPDATE TIME         .0        .0
 mediation_integrate: med_read_wrf_chem_emissions: Read emissions for time 2016-02-05_12:00:00
 **WARNING** Time in input file not being checked **WARNING**
  Tile Strategy is not specified. Assuming 1D-Y
 WRF TILE   1 IS      1 IE     14 JS      1 JE     20
 WRF NUMBER OF TILES =   1
  photolysis_driver: called for domain  4
Timing for main: time 2016-02-05_12:00:20 on domain   4:    6.01638 elapsed seconds
Timing for main: time 2016-02-05_12:00:40 on domain   4:     .22665 elapsed seconds
Timing for main: time 2016-02-05_12:00:40 on domain   2:   36.91262 elapsed seconds
Timing for main: time 2016-02-05_12:00:53 on domain   3:     .18447 elapsed seconds
Timing for main: time 2016-02-05_12:01:06 on domain   3:     .19233 elapsed seconds
Timing for main: time 2016-02-05_12:01:20 on domain   3:     .20286 elapsed seconds
Timing for main: time 2016-02-05_12:01:00 on domain   4:     .21814 elapsed seconds
Timing for main: time 2016-02-05_12:01:20 on domain   4:     .21497 elapsed seconds
Timing for main: time 2016-02-05_12:01:20 on domain   2:    1.74028 elapsed seconds
Timing for main: time 2016-02-05_12:01:33 on domain   3:     .18440 elapsed seconds
Timing for main: time 2016-02-05_12:01:46 on domain   3:     .16897 elapsed seconds
Timing for main: time 2016-02-05_12:02:00 on domain   3:     .16896 elapsed seconds
Timing for main: time 2016-02-05_12:01:40 on domain   4:     .21454 elapsed seconds
Timing for main: time 2016-02-05_12:02:00 on domain   4:     .19999 elapsed seconds
Timing for main: time 2016-02-05_12:02:00 on domain   2:    1.67051 elapsed seconds
Timing for main: time 2016-02-05_12:02:00 on domain   1:   60.50357 elapsed seconds
Timing for main: time 2016-02-05_12:02:13 on domain   3:     .22502 elapsed seconds
Timing for main: time 2016-02-05_12:02:26 on domain   3:     .22557 elapsed seconds
Timing for main: time 2016-02-05_12:02:40 on domain   3:     .17241 elapsed seconds
Timing for main: time 2016-02-05_12:02:20 on domain   4:     .21418 elapsed seconds
Timing for main: time 2016-02-05_12:02:40 on domain   4:     .19913 elapsed seconds
Timing for main: time 2016-02-05_12:02:40 on domain   2:    1.77488 elapsed seconds
Timing for main: time 2016-02-05_12:02:53 on domain   3:     .18388 elapsed seconds
Timing for main: time 2016-02-05_12:03:06 on domain   3:     .16857 elapsed seconds
Timing for main: time 2016-02-05_12:03:20 on domain   3:     .16988 elapsed seconds
Timing for main: time 2016-02-05_12:03:00 on domain   4:     .21455 elapsed seconds
Timing for main: time 2016-02-05_12:03:20 on domain   4:     .20035 elapsed seconds
Timing for main: time 2016-02-05_12:03:20 on domain   2:    1.67032 elapsed seconds
Timing for main: time 2016-02-05_12:03:33 on domain   3:     .18435 elapsed seconds
Timing for main: time 2016-02-05_12:03:46 on domain   3:     .16974 elapsed seconds
Timing for main: time 2016-02-05_12:04:00 on domain   3:     .16949 elapsed seconds
Timing for main: time 2016-02-05_12:03:40 on domain   4:     .21300 elapsed seconds
Timing for main: time 2016-02-05_12:04:00 on domain   4:     .19965 elapsed seconds
Timing for main: time 2016-02-05_12:04:00 on domain   2:    1.66703 elapsed seconds
Timing for main: time 2016-02-05_12:04:00 on domain   1:    5.46348 elapsed seconds
Timing for main: time 2016-02-05_12:04:13 on domain   3:     .18513 elapsed seconds
Timing for main: time 2016-02-05_12:04:26 on domain   3:     .16867 elapsed seconds
Timing for main: time 2016-02-05_12:04:40 on domain   3:     .17130 elapsed seconds
Timing for main: time 2016-02-05_12:04:20 on domain   4:     .21376 elapsed seconds
Timing for main: time 2016-02-05_12:04:40 on domain   4:     .19945 elapsed seconds
Timing for main: time 2016-02-05_12:04:40 on domain   2:    1.67510 elapsed seconds
Timing for main: time 2016-02-05_12:04:53 on domain   3:     .18601 elapsed seconds
Timing for main: time 2016-02-05_12:05:06 on domain   3:     .17693 elapsed seconds
Timing for main: time 2016-02-05_12:05:20 on domain   3:     .16911 elapsed seconds
Timing for main: time 2016-02-05_12:05:00 on domain   4:     .22063 elapsed seconds
Timing for main: time 2016-02-05_12:05:20 on domain   4:     .20012 elapsed seconds
Timing for main: time 2016-02-05_12:05:20 on domain   2:    1.69145 elapsed seconds
Timing for main: time 2016-02-05_12:05:33 on domain   3:     .18583 elapsed seconds
Timing for main: time 2016-02-05_12:05:46 on domain   3:     .16887 elapsed seconds
Timing for main: time 2016-02-05_12:06:00 on domain   3:     .16895 elapsed seconds
Timing for main: time 2016-02-05_12:05:40 on domain   4:     .21434 elapsed seconds
Timing for main: time 2016-02-05_12:06:00 on domain   4:     .20387 elapsed seconds
Timing for main: time 2016-02-05_12:06:00 on domain   2:    1.67136 elapsed seconds
Timing for main: time 2016-02-05_12:06:00 on domain   1:    5.40845 elapsed seconds
Timing for main: time 2016-02-05_12:06:13 on domain   3:     .18518 elapsed seconds
Timing for main: time 2016-02-05_12:06:26 on domain   3:     .16940 elapsed seconds
Timing for main: time 2016-02-05_12:06:40 on domain   3:     .16891 elapsed seconds
Timing for main: time 2016-02-05_12:06:20 on domain   4:     .21689 elapsed seconds
Timing for main: time 2016-02-05_12:06:40 on domain   4:     .19978 elapsed seconds
Timing for main: time 2016-02-05_12:06:40 on domain   2:    1.67857 elapsed seconds
Timing for main: time 2016-02-05_12:06:53 on domain   3:     .18535 elapsed seconds
Timing for main: time 2016-02-05_12:07:06 on domain   3:     .16897 elapsed seconds
Timing for main: time 2016-02-05_12:07:20 on domain   3:     .16951 elapsed seconds
Timing for main: time 2016-02-05_12:07:00 on domain   4:     .21450 elapsed seconds
Timing for main: time 2016-02-05_12:07:20 on domain   4:     .20081 elapsed seconds
Timing for main: time 2016-02-05_12:07:20 on domain   2:    1.66743 elapsed seconds
Timing for main: time 2016-02-05_12:07:33 on domain   3:     .18627 elapsed seconds
Timing for main: time 2016-02-05_12:07:46 on domain   3:     .17162 elapsed seconds
Timing for main: time 2016-02-05_12:08:00 on domain   3:     .16826 elapsed seconds
Timing for main: time 2016-02-05_12:07:40 on domain   4:     .21252 elapsed seconds
Timing for main: time 2016-02-05_12:08:00 on domain   4:     .20099 elapsed seconds
Timing for main: time 2016-02-05_12:08:00 on domain   2:    1.67231 elapsed seconds
Timing for main: time 2016-02-05_12:08:00 on domain   1:    5.38270 elapsed seconds
Timing for main: time 2016-02-05_12:08:13 on domain   3:     .18457 elapsed seconds
Timing for main: time 2016-02-05_12:08:26 on domain   3:     .17028 elapsed seconds
Timing for main: time 2016-02-05_12:08:40 on domain   3:     .17049 elapsed seconds
Timing for main: time 2016-02-05_12:08:20 on domain   4:     .22872 elapsed seconds
Timing for main: time 2016-02-05_12:08:40 on domain   4:     .20333 elapsed seconds
Timing for main: time 2016-02-05_12:08:40 on domain   2:    1.69449 elapsed seconds
Timing for main: time 2016-02-05_12:08:53 on domain   3:     .19037 elapsed seconds
Timing for main: time 2016-02-05_12:09:06 on domain   3:     .16882 elapsed seconds
Timing for main: time 2016-02-05_12:09:20 on domain   3:     .17096 elapsed seconds
Timing for main: time 2016-02-05_12:09:00 on domain   4:     .21400 elapsed seconds
Timing for main: time 2016-02-05_12:09:20 on domain   4:     .20073 elapsed seconds
Timing for main: time 2016-02-05_12:09:20 on domain   2:    1.67617 elapsed seconds
Timing for main: time 2016-02-05_12:09:33 on domain   3:     .18355 elapsed seconds
Timing for main: time 2016-02-05_12:09:46 on domain   3:     .17317 elapsed seconds
Timing for main: time 2016-02-05_12:10:00 on domain   3:     .16954 elapsed seconds
Timing for main: time 2016-02-05_12:09:40 on domain   4:     .22018 elapsed seconds
Timing for main: time 2016-02-05_12:10:00 on domain   4:     .24735 elapsed seconds
Timing for main: time 2016-02-05_12:10:00 on domain   2:    1.72614 elapsed seconds
Timing for main: time 2016-02-05_12:10:00 on domain   1:    5.46063 elapsed seconds
Timing for main: time 2016-02-05_12:10:13 on domain   3:     .19108 elapsed seconds
Timing for main: time 2016-02-05_12:10:26 on domain   3:     .16762 elapsed seconds
Timing for main: time 2016-02-05_12:10:40 on domain   3:     .16978 elapsed seconds
Timing for main: time 2016-02-05_12:10:20 on domain   4:     .21393 elapsed seconds
Timing for main: time 2016-02-05_12:10:40 on domain   4:     .20977 elapsed seconds
Timing for main: time 2016-02-05_12:10:40 on domain   2:    1.70294 elapsed seconds
Timing for main: time 2016-02-05_12:10:53 on domain   3:     .18441 elapsed seconds
Timing for main: time 2016-02-05_12:11:06 on domain   3:     .16962 elapsed seconds
Timing for main: time 2016-02-05_12:11:20 on domain   3:     .17469 elapsed seconds
Timing for main: time 2016-02-05_12:11:00 on domain   4:     .21354 elapsed seconds
Timing for main: time 2016-02-05_12:11:20 on domain   4:     .20068 elapsed seconds
Timing for main: time 2016-02-05_12:11:20 on domain   2:    1.67496 elapsed seconds
Timing for main: time 2016-02-05_12:11:33 on domain   3:     .18455 elapsed seconds
Timing for main: time 2016-02-05_12:11:46 on domain   3:     .16924 elapsed seconds
Timing for main: time 2016-02-05_12:12:00 on domain   3:     .17023 elapsed seconds
Timing for main: time 2016-02-05_12:11:40 on domain   4:     .22240 elapsed seconds
Timing for main: time 2016-02-05_12:12:00 on domain   4:     .20018 elapsed seconds
Timing for main: time 2016-02-05_12:12:00 on domain   2:    1.71967 elapsed seconds
Timing for main: time 2016-02-05_12:12:00 on domain   1:    5.46780 elapsed seconds
Timing for main: time 2016-02-05_12:12:13 on domain   3:     .18554 elapsed seconds
Timing for main: time 2016-02-05_12:12:26 on domain   3:     .16900 elapsed seconds
Timing for main: time 2016-02-05_12:12:40 on domain   3:     .17201 elapsed seconds
Timing for main: time 2016-02-05_12:12:20 on domain   4:     .21438 elapsed seconds
Timing for main: time 2016-02-05_12:12:40 on domain   4:     .20076 elapsed seconds
Timing for main: time 2016-02-05_12:12:40 on domain   2:    1.68739 elapsed seconds
Timing for main: time 2016-02-05_12:12:53 on domain   3:     .18461 elapsed seconds
Timing for main: time 2016-02-05_12:13:06 on domain   3:     .16982 elapsed seconds
Timing for main: time 2016-02-05_12:13:20 on domain   3:     .17161 elapsed seconds
Timing for main: time 2016-02-05_12:13:00 on domain   4:     .21824 elapsed seconds
Timing for main: time 2016-02-05_12:13:20 on domain   4:     .19907 elapsed seconds
Timing for main: time 2016-02-05_12:13:20 on domain   2:    1.67528 elapsed seconds
Timing for main: time 2016-02-05_12:13:33 on domain   3:     .18508 elapsed seconds
Timing for main: time 2016-02-05_12:13:46 on domain   3:     .16831 elapsed seconds
Timing for main: time 2016-02-05_12:14:00 on domain   3:     .23752 elapsed seconds
Timing for main: time 2016-02-05_12:13:40 on domain   4:     .21575 elapsed seconds
Timing for main: time 2016-02-05_12:14:00 on domain   4:     .20150 elapsed seconds
Timing for main: time 2016-02-05_12:14:00 on domain   2:    1.79118 elapsed seconds
Timing for main: time 2016-02-05_12:14:00 on domain   1:    5.51982 elapsed seconds
Timing for main: time 2016-02-05_12:14:13 on domain   3:     .18463 elapsed seconds
Timing for main: time 2016-02-05_12:14:26 on domain   3:     .17059 elapsed seconds
Timing for main: time 2016-02-05_12:14:40 on domain   3:     .17024 elapsed seconds
Timing for main: time 2016-02-05_12:14:20 on domain   4:     .21358 elapsed seconds
Timing for main: time 2016-02-05_12:14:40 on domain   4:     .20114 elapsed seconds
Timing for main: time 2016-02-05_12:14:40 on domain   2:    1.68241 elapsed seconds
Timing for main: time 2016-02-05_12:14:53 on domain   3:     .18567 elapsed seconds
Timing for main: time 2016-02-05_12:15:06 on domain   3:     .16914 elapsed seconds
Timing for main: time 2016-02-05_12:15:20 on domain   3:     .17478 elapsed seconds
Timing for main: time 2016-02-05_12:15:00 on domain   4:     .22255 elapsed seconds
Timing for main: time 2016-02-05_12:15:20 on domain   4:     .20071 elapsed seconds
Timing for main: time 2016-02-05_12:15:20 on domain   2:    1.68359 elapsed seconds
Timing for main: time 2016-02-05_12:15:33 on domain   3:     .18531 elapsed seconds
Timing for main: time 2016-02-05_12:15:46 on domain   3:     .16947 elapsed seconds
Timing for main: time 2016-02-05_12:16:00 on domain   3:     .16804 elapsed seconds
Timing for main: time 2016-02-05_12:15:40 on domain   4:     .21369 elapsed seconds
Timing for main: time 2016-02-05_12:16:00 on domain   4:     .20063 elapsed seconds
Timing for main: time 2016-02-05_12:16:00 on domain   2:    1.67666 elapsed seconds
Timing for main: time 2016-02-05_12:16:00 on domain   1:    5.40733 elapsed seconds
Timing for main: time 2016-02-05_12:16:13 on domain   3:     .18721 elapsed seconds
Timing for main: time 2016-02-05_12:16:26 on domain   3:     .16963 elapsed seconds
Timing for main: time 2016-02-05_12:16:40 on domain   3:     .16950 elapsed seconds
Timing for main: time 2016-02-05_12:16:20 on domain   4:     .21410 elapsed seconds
Timing for main: time 2016-02-05_12:16:40 on domain   4:     .20082 elapsed seconds
Timing for main: time 2016-02-05_12:16:40 on domain   2:    1.67930 elapsed seconds
Timing for main: time 2016-02-05_12:16:53 on domain   3:     .18636 elapsed seconds
Timing for main: time 2016-02-05_12:17:06 on domain   3:     .16844 elapsed seconds
Timing for main: time 2016-02-05_12:17:20 on domain   3:     .16927 elapsed seconds
Timing for main: time 2016-02-05_12:17:00 on domain   4:     .21524 elapsed seconds
Timing for main: time 2016-02-05_12:17:20 on domain   4:     .20128 elapsed seconds
Timing for main: time 2016-02-05_12:17:20 on domain   2:    1.67106 elapsed seconds
Timing for main: time 2016-02-05_12:17:33 on domain   3:     .18473 elapsed seconds
Timing for main: time 2016-02-05_12:17:46 on domain   3:     .17148 elapsed seconds
Timing for main: time 2016-02-05_12:18:00 on domain   3:     .16719 elapsed seconds
Timing for main: time 2016-02-05_12:17:40 on domain   4:     .21397 elapsed seconds
Timing for main: time 2016-02-05_12:18:00 on domain   4:     .20119 elapsed seconds
Timing for main: time 2016-02-05_12:18:00 on domain   2:    1.67130 elapsed seconds
Timing for main: time 2016-02-05_12:18:00 on domain   1:    5.39590 elapsed seconds
Timing for main: time 2016-02-05_12:18:13 on domain   3:     .18618 elapsed seconds
Timing for main: time 2016-02-05_12:18:26 on domain   3:     .16919 elapsed seconds
Timing for main: time 2016-02-05_12:18:40 on domain   3:     .17033 elapsed seconds
Timing for main: time 2016-02-05_12:18:20 on domain   4:     .21488 elapsed seconds
Timing for main: time 2016-02-05_12:18:40 on domain   4:     .20000 elapsed seconds
Timing for main: time 2016-02-05_12:18:40 on domain   2:    1.67951 elapsed seconds
Timing for main: time 2016-02-05_12:18:53 on domain   3:     .18470 elapsed seconds
Timing for main: time 2016-02-05_12:19:06 on domain   3:     .16992 elapsed seconds
Timing for main: time 2016-02-05_12:19:20 on domain   3:     .16919 elapsed seconds
Timing for main: time 2016-02-05_12:19:00 on domain   4:     .21440 elapsed seconds
Timing for main: time 2016-02-05_12:19:20 on domain   4:     .20174 elapsed seconds
Timing for main: time 2016-02-05_12:19:20 on domain   2:    1.67176 elapsed seconds
Timing for main: time 2016-02-05_12:19:33 on domain   3:     .18540 elapsed seconds
Timing for main: time 2016-02-05_12:19:46 on domain   3:     .16874 elapsed seconds
Timing for main: time 2016-02-05_12:20:00 on domain   3:     .16973 elapsed seconds
Timing for main: time 2016-02-05_12:19:40 on domain   4:     .21272 elapsed seconds
Timing for main: time 2016-02-05_12:20:00 on domain   4:     .20954 elapsed seconds
Timing for main: time 2016-02-05_12:20:00 on domain   2:    1.67854 elapsed seconds
Timing for main: time 2016-02-05_12:20:00 on domain   1:    5.39490 elapsed seconds
Timing for main: time 2016-02-05_12:20:13 on domain   3:     .18320 elapsed seconds
Timing for main: time 2016-02-05_12:20:26 on domain   3:     .17585 elapsed seconds
Timing for main: time 2016-02-05_12:20:40 on domain   3:     .17041 elapsed seconds
Timing for main: time 2016-02-05_12:20:20 on domain   4:     .21609 elapsed seconds
Timing for main: time 2016-02-05_12:20:40 on domain   4:     .20023 elapsed seconds
Timing for main: time 2016-02-05_12:20:40 on domain   2:    1.68339 elapsed seconds
Timing for main: time 2016-02-05_12:20:53 on domain   3:     .18498 elapsed seconds
Timing for main: time 2016-02-05_12:21:06 on domain   3:     .16996 elapsed seconds
Timing for main: time 2016-02-05_12:21:20 on domain   3:     .16958 elapsed seconds
Timing for main: time 2016-02-05_12:21:00 on domain   4:     .21502 elapsed seconds
Timing for main: time 2016-02-05_12:21:20 on domain   4:     .20077 elapsed seconds
Timing for main: time 2016-02-05_12:21:20 on domain   2:    1.67953 elapsed seconds
Timing for main: time 2016-02-05_12:21:33 on domain   3:     .18672 elapsed seconds
Timing for main: time 2016-02-05_12:21:46 on domain   3:     .16885 elapsed seconds
Timing for main: time 2016-02-05_12:22:00 on domain   3:     .17013 elapsed seconds
Timing for main: time 2016-02-05_12:21:40 on domain   4:     .21427 elapsed seconds
Timing for main: time 2016-02-05_12:22:00 on domain   4:     .20121 elapsed seconds
Timing for main: time 2016-02-05_12:22:00 on domain   2:    1.67321 elapsed seconds
Timing for main: time 2016-02-05_12:22:00 on domain   1:    5.40202 elapsed seconds
Timing for main: time 2016-02-05_12:22:13 on domain   3:     .18523 elapsed seconds
Timing for main: time 2016-02-05_12:22:26 on domain   3:     .16960 elapsed seconds
Timing for main: time 2016-02-05_12:22:40 on domain   3:     .16919 elapsed seconds
Timing for main: time 2016-02-05_12:22:20 on domain   4:     .21427 elapsed seconds
Timing for main: time 2016-02-05_12:22:40 on domain   4:     .20180 elapsed seconds
Timing for main: time 2016-02-05_12:22:40 on domain   2:    1.68013 elapsed seconds
Timing for main: time 2016-02-05_12:22:53 on domain   3:     .18507 elapsed seconds
Timing for main: time 2016-02-05_12:23:06 on domain   3:     .16865 elapsed seconds
Timing for main: time 2016-02-05_12:23:20 on domain   3:     .17006 elapsed seconds
Timing for main: time 2016-02-05_12:23:00 on domain   4:     .21549 elapsed seconds
Timing for main: time 2016-02-05_12:23:20 on domain   4:     .20011 elapsed seconds
Timing for main: time 2016-02-05_12:23:20 on domain   2:    1.67369 elapsed seconds
Timing for main: time 2016-02-05_12:23:33 on domain   3:     .18628 elapsed seconds
Timing for main: time 2016-02-05_12:23:46 on domain   3:     .17085 elapsed seconds
Timing for main: time 2016-02-05_12:24:00 on domain   3:     .16791 elapsed seconds
Timing for main: time 2016-02-05_12:23:40 on domain   4:     .21388 elapsed seconds
Timing for main: time 2016-02-05_12:24:00 on domain   4:     .20116 elapsed seconds
Timing for main: time 2016-02-05_12:24:00 on domain   2:    1.66997 elapsed seconds
Timing for main: time 2016-02-05_12:24:00 on domain   1:    5.39604 elapsed seconds
Timing for main: time 2016-02-05_12:24:13 on domain   3:     .18892 elapsed seconds
Timing for main: time 2016-02-05_12:24:26 on domain   3:     .16507 elapsed seconds
Timing for main: time 2016-02-05_12:24:40 on domain   3:     .16812 elapsed seconds
Timing for main: time 2016-02-05_12:24:20 on domain   4:     .21342 elapsed seconds
Timing for main: time 2016-02-05_12:24:40 on domain   4:     .20155 elapsed seconds
Timing for main: time 2016-02-05_12:24:40 on domain   2:    1.67649 elapsed seconds
Timing for main: time 2016-02-05_12:24:53 on domain   3:     .18267 elapsed seconds
Timing for main: time 2016-02-05_12:25:06 on domain   3:     .17010 elapsed seconds
Timing for main: time 2016-02-05_12:25:20 on domain   3:     .16989 elapsed seconds
Timing for main: time 2016-02-05_12:25:00 on domain   4:     .22126 elapsed seconds
Timing for main: time 2016-02-05_12:25:20 on domain   4:     .20365 elapsed seconds
Timing for main: time 2016-02-05_12:25:20 on domain   2:    1.67947 elapsed seconds
Timing for main: time 2016-02-05_12:25:33 on domain   3:     .18910 elapsed seconds
Timing for main: time 2016-02-05_12:25:46 on domain   3:     .16977 elapsed seconds
Timing for main: time 2016-02-05_12:26:00 on domain   3:     .17015 elapsed seconds
Timing for main: time 2016-02-05_12:25:40 on domain   4:     .21514 elapsed seconds
Timing for main: time 2016-02-05_12:26:00 on domain   4:     .20089 elapsed seconds
Timing for main: time 2016-02-05_12:26:00 on domain   2:    1.67493 elapsed seconds
Timing for main: time 2016-02-05_12:26:00 on domain   1:    5.39739 elapsed seconds
Timing for main: time 2016-02-05_12:26:13 on domain   3:     .18581 elapsed seconds
Timing for main: time 2016-02-05_12:26:26 on domain   3:     .16824 elapsed seconds
Timing for main: time 2016-02-05_12:26:40 on domain   3:     .16893 elapsed seconds
Timing for main: time 2016-02-05_12:26:20 on domain   4:     .21482 elapsed seconds
Timing for main: time 2016-02-05_12:26:40 on domain   4:     .20110 elapsed seconds
Timing for main: time 2016-02-05_12:26:40 on domain   2:    1.68385 elapsed seconds
Timing for main: time 2016-02-05_12:26:53 on domain   3:     .18491 elapsed seconds
Timing for main: time 2016-02-05_12:27:06 on domain   3:     .17101 elapsed seconds
Timing for main: time 2016-02-05_12:27:20 on domain   3:     .16850 elapsed seconds
Timing for main: time 2016-02-05_12:27:00 on domain   4:     .21435 elapsed seconds
Timing for main: time 2016-02-05_12:27:20 on domain   4:     .20095 elapsed seconds
Timing for main: time 2016-02-05_12:27:20 on domain   2:    1.67235 elapsed seconds
Timing for main: time 2016-02-05_12:27:33 on domain   3:     .18615 elapsed seconds
Timing for main: time 2016-02-05_12:27:46 on domain   3:     .16824 elapsed seconds
Timing for main: time 2016-02-05_12:28:00 on domain   3:     .16814 elapsed seconds
Timing for main: time 2016-02-05_12:27:40 on domain   4:     .21444 elapsed seconds
Timing for main: time 2016-02-05_12:28:00 on domain   4:     .20190 elapsed seconds
Timing for main: time 2016-02-05_12:28:00 on domain   2:    1.67281 elapsed seconds
Timing for main: time 2016-02-05_12:28:00 on domain   1:    5.39629 elapsed seconds
  photolysis_driver: called for domain  1
Timing for main: time 2016-02-05_12:28:13 on domain   3:     .18623 elapsed seconds
Timing for main: time 2016-02-05_12:28:26 on domain   3:     .16745 elapsed seconds
Timing for main: time 2016-02-05_12:28:40 on domain   3:     .16759 elapsed seconds
Timing for main: time 2016-02-05_12:28:20 on domain   4:     .21425 elapsed seconds
Timing for main: time 2016-02-05_12:28:40 on domain   4:     .20101 elapsed seconds
Timing for main: time 2016-02-05_12:28:40 on domain   2:    1.67567 elapsed seconds
Timing for main: time 2016-02-05_12:28:53 on domain   3:     .18532 elapsed seconds
Timing for main: time 2016-02-05_12:29:06 on domain   3:     .16911 elapsed seconds
Timing for main: time 2016-02-05_12:29:20 on domain   3:     .16838 elapsed seconds
Timing for main: time 2016-02-05_12:29:00 on domain   4:     .21482 elapsed seconds
Timing for main: time 2016-02-05_12:29:20 on domain   4:     .20106 elapsed seconds
Timing for main: time 2016-02-05_12:29:20 on domain   2:    1.67001 elapsed seconds
  photolysis_driver: called for domain  2
Timing for main: time 2016-02-05_12:29:33 on domain   3:     .18602 elapsed seconds
Timing for main: time 2016-02-05_12:29:46 on domain   3:     .18140 elapsed seconds
  photolysis_driver: called for domain  3
Timing for main: time 2016-02-05_12:30:00 on domain   3:     .85058 elapsed seconds
Timing for main: time 2016-02-05_12:29:40 on domain   4:     .21431 elapsed seconds
  photolysis_driver: called for domain  4
Timing for main: time 2016-02-05_12:30:00 on domain   4:     .92232 elapsed seconds
Timing for main: time 2016-02-05_12:30:00 on domain   2:    3.83612 elapsed seconds
Timing for main: time 2016-02-05_12:30:00 on domain   1:    8.00006 elapsed seconds
Timing for main: time 2016-02-05_12:30:13 on domain   3:     .31584 elapsed seconds
Timing for main: time 2016-02-05_12:30:26 on domain   3:     .16637 elapsed seconds
Timing for main: time 2016-02-05_12:30:40 on domain   3:     .17447 elapsed seconds
Timing for main: time 2016-02-05_12:30:20 on domain   4:     .37012 elapsed seconds
Timing for main: time 2016-02-05_12:30:40 on domain   4:     .20166 elapsed seconds
Timing for main: time 2016-02-05_12:30:40 on domain   2:    2.13066 elapsed seconds
Timing for main: time 2016-02-05_12:30:53 on domain   3:     .18537 elapsed seconds
Timing for main: time 2016-02-05_12:31:06 on domain   3:     .16827 elapsed seconds
Timing for main: time 2016-02-05_12:31:20 on domain   3:     .16847 elapsed seconds
Timing for main: time 2016-02-05_12:31:00 on domain   4:     .21334 elapsed seconds
Timing for main: time 2016-02-05_12:31:20 on domain   4:     .20106 elapsed seconds
Timing for main: time 2016-02-05_12:31:20 on domain   2:    1.66485 elapsed seconds
Timing for main: time 2016-02-05_12:31:33 on domain   3:     .18441 elapsed seconds
Timing for main: time 2016-02-05_12:31:46 on domain   3:     .16879 elapsed seconds
Timing for main: time 2016-02-05_12:32:00 on domain   3:     .16765 elapsed seconds
Timing for main: time 2016-02-05_12:31:40 on domain   4:     .21374 elapsed seconds
Timing for main: time 2016-02-05_12:32:00 on domain   4:     .20120 elapsed seconds
Timing for main: time 2016-02-05_12:32:00 on domain   2:    1.67263 elapsed seconds
Timing for main: time 2016-02-05_12:32:00 on domain   1:    5.95601 elapsed seconds
Timing for main: time 2016-02-05_12:32:13 on domain   3:     .18530 elapsed seconds
Timing for main: time 2016-02-05_12:32:26 on domain   3:     .16777 elapsed seconds
Timing for main: time 2016-02-05_12:32:40 on domain   3:     .16989 elapsed seconds
Timing for main: time 2016-02-05_12:32:20 on domain   4:     .21418 elapsed seconds
Timing for main: time 2016-02-05_12:32:40 on domain   4:     .20469 elapsed seconds
Timing for main: time 2016-02-05_12:32:40 on domain   2:    1.67853 elapsed seconds
Timing for main: time 2016-02-05_12:32:53 on domain   3:     .18413 elapsed seconds
Timing for main: time 2016-02-05_12:33:06 on domain   3:     .16833 elapsed seconds
Timing for main: time 2016-02-05_12:33:20 on domain   3:     .16888 elapsed seconds
Timing for main: time 2016-02-05_12:33:00 on domain   4:     .21410 elapsed seconds
Timing for main: time 2016-02-05_12:33:20 on domain   4:     .19985 elapsed seconds
Timing for main: time 2016-02-05_12:33:20 on domain   2:    1.66509 elapsed seconds
Timing for main: time 2016-02-05_12:33:33 on domain   3:     .18600 elapsed seconds
Timing for main: time 2016-02-05_12:33:46 on domain   3:     .16805 elapsed seconds
Timing for main: time 2016-02-05_12:34:00 on domain   3:     .16767 elapsed seconds
Timing for main: time 2016-02-05_12:33:40 on domain   4:     .21393 elapsed seconds
Timing for main: time 2016-02-05_12:34:00 on domain   4:     .20064 elapsed seconds
Timing for main: time 2016-02-05_12:34:00 on domain   2:    1.66576 elapsed seconds
Timing for main: time 2016-02-05_12:34:00 on domain   1:    5.37590 elapsed seconds
Timing for main: time 2016-02-05_12:34:13 on domain   3:     .18975 elapsed seconds
Timing for main: time 2016-02-05_12:34:26 on domain   3:     .16855 elapsed seconds
Timing for main: time 2016-02-05_12:34:40 on domain   3:     .20811 elapsed seconds
Timing for main: time 2016-02-05_12:34:20 on domain   4:     .21471 elapsed seconds
Timing for main: time 2016-02-05_12:34:40 on domain   4:     .20079 elapsed seconds
Timing for main: time 2016-02-05_12:34:40 on domain   2:    1.74745 elapsed seconds
Timing for main: time 2016-02-05_12:34:53 on domain   3:     .20572 elapsed seconds
Timing for main: time 2016-02-05_12:35:06 on domain   3:     .16761 elapsed seconds
Timing for main: time 2016-02-05_12:35:20 on domain   3:     .16818 elapsed seconds
Timing for main: time 2016-02-05_12:35:00 on domain   4:     .22549 elapsed seconds
Timing for main: time 2016-02-05_12:35:20 on domain   4:     .19915 elapsed seconds
Timing for main: time 2016-02-05_12:35:20 on domain   2:    1.72571 elapsed seconds
Timing for main: time 2016-02-05_12:35:33 on domain   3:     .18442 elapsed seconds
Timing for main: time 2016-02-05_12:35:46 on domain   3:     .17557 elapsed seconds
Timing for main: time 2016-02-05_12:36:00 on domain   3:     .16675 elapsed seconds
Timing for main: time 2016-02-05_12:35:40 on domain   4:     .21307 elapsed seconds
Timing for main: time 2016-02-05_12:36:00 on domain   4:     .20096 elapsed seconds
Timing for main: time 2016-02-05_12:36:00 on domain   2:    1.66965 elapsed seconds
Timing for main: time 2016-02-05_12:36:00 on domain   1:    5.51432 elapsed seconds
Timing for main: time 2016-02-05_12:36:13 on domain   3:     .18460 elapsed seconds
Timing for main: time 2016-02-05_12:36:26 on domain   3:     .16796 elapsed seconds
Timing for main: time 2016-02-05_12:36:40 on domain   3:     .16936 elapsed seconds
Timing for main: time 2016-02-05_12:36:20 on domain   4:     .21437 elapsed seconds
Timing for main: time 2016-02-05_12:36:40 on domain   4:     .19986 elapsed seconds
Timing for main: time 2016-02-05_12:36:40 on domain   2:    1.67367 elapsed seconds
Timing for main: time 2016-02-05_12:36:53 on domain   3:     .18451 elapsed seconds
Timing for main: time 2016-02-05_12:37:06 on domain   3:     .17095 elapsed seconds
Timing for main: time 2016-02-05_12:37:20 on domain   3:     .16726 elapsed seconds
Timing for main: time 2016-02-05_12:37:00 on domain   4:     .21503 elapsed seconds
Timing for main: time 2016-02-05_12:37:20 on domain   4:     .20022 elapsed seconds
Timing for main: time 2016-02-05_12:37:20 on domain   2:    1.67448 elapsed seconds
Timing for main: time 2016-02-05_12:37:33 on domain   3:     .18522 elapsed seconds
Timing for main: time 2016-02-05_12:37:46 on domain   3:     .16960 elapsed seconds
Timing for main: time 2016-02-05_12:38:00 on domain   3:     .16784 elapsed seconds
Timing for main: time 2016-02-05_12:37:40 on domain   4:     .21409 elapsed seconds
Timing for main: time 2016-02-05_12:38:00 on domain   4:     .19963 elapsed seconds
Timing for main: time 2016-02-05_12:38:00 on domain   2:    1.66564 elapsed seconds
Timing for main: time 2016-02-05_12:38:00 on domain   1:    5.37931 elapsed seconds
Timing for main: time 2016-02-05_12:38:13 on domain   3:     .18505 elapsed seconds
Timing for main: time 2016-02-05_12:38:26 on domain   3:     .16735 elapsed seconds
Timing for main: time 2016-02-05_12:38:40 on domain   3:     .16790 elapsed seconds
Timing for main: time 2016-02-05_12:38:20 on domain   4:     .21522 elapsed seconds
Timing for main: time 2016-02-05_12:38:40 on domain   4:     .20174 elapsed seconds
Timing for main: time 2016-02-05_12:38:40 on domain   2:    1.67542 elapsed seconds
Timing for main: time 2016-02-05_12:38:53 on domain   3:     .18462 elapsed seconds
Timing for main: time 2016-02-05_12:39:06 on domain   3:     .16756 elapsed seconds
Timing for main: time 2016-02-05_12:39:20 on domain   3:     .16849 elapsed seconds
Timing for main: time 2016-02-05_12:39:00 on domain   4:     .21352 elapsed seconds
Timing for main: time 2016-02-05_12:39:20 on domain   4:     .19898 elapsed seconds
Timing for main: time 2016-02-05_12:39:20 on domain   2:    1.66089 elapsed seconds
Timing for main: time 2016-02-05_12:39:33 on domain   3:     .18459 elapsed seconds
Timing for main: time 2016-02-05_12:39:46 on domain   3:     .16869 elapsed seconds
Timing for main: time 2016-02-05_12:40:00 on domain   3:     .16856 elapsed seconds
Timing for main: time 2016-02-05_12:39:40 on domain   4:     .21391 elapsed seconds
Timing for main: time 2016-02-05_12:40:00 on domain   4:     .20729 elapsed seconds
Timing for main: time 2016-02-05_12:40:00 on domain   2:    1.74609 elapsed seconds
Timing for main: time 2016-02-05_12:40:00 on domain   1:    5.44863 elapsed seconds
Timing for main: time 2016-02-05_12:40:13 on domain   3:     .18383 elapsed seconds
Timing for main: time 2016-02-05_12:40:26 on domain   3:     .16845 elapsed seconds
Timing for main: time 2016-02-05_12:40:40 on domain   3:     .16878 elapsed seconds
Timing for main: time 2016-02-05_12:40:20 on domain   4:     .21351 elapsed seconds
Timing for main: time 2016-02-05_12:40:40 on domain   4:     .20189 elapsed seconds
Timing for main: time 2016-02-05_12:40:40 on domain   2:    1.67346 elapsed seconds
Timing for main: time 2016-02-05_12:40:53 on domain   3:     .19152 elapsed seconds
Timing for main: time 2016-02-05_12:41:06 on domain   3:     .16747 elapsed seconds
Timing for main: time 2016-02-05_12:41:20 on domain   3:     .16793 elapsed seconds
Timing for main: time 2016-02-05_12:41:00 on domain   4:     .21392 elapsed seconds
Timing for main: time 2016-02-05_12:41:20 on domain   4:     .20033 elapsed seconds
Timing for main: time 2016-02-05_12:41:20 on domain   2:    1.67698 elapsed seconds
Timing for main: time 2016-02-05_12:41:33 on domain   3:     .18558 elapsed seconds
Timing for main: time 2016-02-05_12:41:46 on domain   3:     .16718 elapsed seconds
Timing for main: time 2016-02-05_12:42:00 on domain   3:     .16944 elapsed seconds
Timing for main: time 2016-02-05_12:41:40 on domain   4:     .21333 elapsed seconds
Timing for main: time 2016-02-05_12:42:00 on domain   4:     .21481 elapsed seconds
Timing for main: time 2016-02-05_12:42:00 on domain   2:    1.68310 elapsed seconds
Timing for main: time 2016-02-05_12:42:00 on domain   1:    5.40555 elapsed seconds
Timing for main: time 2016-02-05_12:42:13 on domain   3:     .18452 elapsed seconds
Timing for main: time 2016-02-05_12:42:26 on domain   3:     .16688 elapsed seconds
Timing for main: time 2016-02-05_12:42:40 on domain   3:     .16767 elapsed seconds
Timing for main: time 2016-02-05_12:42:20 on domain   4:     .21363 elapsed seconds
Timing for main: time 2016-02-05_12:42:40 on domain   4:     .20046 elapsed seconds
Timing for main: time 2016-02-05_12:42:40 on domain   2:    1.67798 elapsed seconds
Timing for main: time 2016-02-05_12:42:53 on domain   3:     .18441 elapsed seconds
Timing for main: time 2016-02-05_12:43:06 on domain   3:     .16773 elapsed seconds
Timing for main: time 2016-02-05_12:43:20 on domain   3:     .16700 elapsed seconds
Timing for main: time 2016-02-05_12:43:00 on domain   4:     .21350 elapsed seconds
Timing for main: time 2016-02-05_12:43:20 on domain   4:     .20190 elapsed seconds
Timing for main: time 2016-02-05_12:43:20 on domain   2:    1.66379 elapsed seconds
Timing for main: time 2016-02-05_12:43:33 on domain   3:     .19800 elapsed seconds
Timing for main: time 2016-02-05_12:43:46 on domain   3:     .17005 elapsed seconds
Timing for main: time 2016-02-05_12:44:00 on domain   3:     .16698 elapsed seconds
Timing for main: time 2016-02-05_12:43:40 on domain   4:     .21417 elapsed seconds
Timing for main: time 2016-02-05_12:44:00 on domain   4:     .20079 elapsed seconds
Timing for main: time 2016-02-05_12:44:00 on domain   2:    1.67988 elapsed seconds
Timing for main: time 2016-02-05_12:44:00 on domain   1:    5.38642 elapsed seconds
Timing for main: time 2016-02-05_12:44:13 on domain   3:     .18502 elapsed seconds
Timing for main: time 2016-02-05_12:44:26 on domain   3:     .16767 elapsed seconds
Timing for main: time 2016-02-05_12:44:40 on domain   3:     .16828 elapsed seconds
Timing for main: time 2016-02-05_12:44:20 on domain   4:     .21492 elapsed seconds
Timing for main: time 2016-02-05_12:44:40 on domain   4:     .19958 elapsed seconds
Timing for main: time 2016-02-05_12:44:40 on domain   2:    1.67146 elapsed seconds
Timing for main: time 2016-02-05_12:44:53 on domain   3:     .18441 elapsed seconds
Timing for main: time 2016-02-05_12:45:06 on domain   3:     .16799 elapsed seconds
Timing for main: time 2016-02-05_12:45:20 on domain   3:     .16663 elapsed seconds
Timing for main: time 2016-02-05_12:45:00 on domain   4:     .22150 elapsed seconds
Timing for main: time 2016-02-05_12:45:20 on domain   4:     .20039 elapsed seconds
Timing for main: time 2016-02-05_12:45:20 on domain   2:    1.67040 elapsed seconds
Timing for main: time 2016-02-05_12:45:33 on domain   3:     .18415 elapsed seconds
Timing for main: time 2016-02-05_12:45:46 on domain   3:     .16862 elapsed seconds
Timing for main: time 2016-02-05_12:46:00 on domain   3:     .17284 elapsed seconds
Timing for main: time 2016-02-05_12:45:40 on domain   4:     .21404 elapsed seconds
Timing for main: time 2016-02-05_12:46:00 on domain   4:     .20053 elapsed seconds
Timing for main: time 2016-02-05_12:46:00 on domain   2:    1.67238 elapsed seconds
Timing for main: time 2016-02-05_12:46:00 on domain   1:    5.37962 elapsed seconds
Timing for main: time 2016-02-05_12:46:13 on domain   3:     .18436 elapsed seconds
Timing for main: time 2016-02-05_12:46:26 on domain   3:     .17005 elapsed seconds
Timing for main: time 2016-02-05_12:46:40 on domain   3:     .16677 elapsed seconds
Timing for main: time 2016-02-05_12:46:20 on domain   4:     .21394 elapsed seconds
Timing for main: time 2016-02-05_12:46:40 on domain   4:     .19934 elapsed seconds
Timing for main: time 2016-02-05_12:46:40 on domain   2:    1.67054 elapsed seconds
Timing for main: time 2016-02-05_12:46:53 on domain   3:     .18455 elapsed seconds
Timing for main: time 2016-02-05_12:47:06 on domain   3:     .16850 elapsed seconds
Timing for main: time 2016-02-05_12:47:20 on domain   3:     .16640 elapsed seconds
Timing for main: time 2016-02-05_12:47:00 on domain   4:     .21453 elapsed seconds
Timing for main: time 2016-02-05_12:47:20 on domain   4:     .23142 elapsed seconds
Timing for main: time 2016-02-05_12:47:20 on domain   2:    1.69538 elapsed seconds
Timing for main: time 2016-02-05_12:47:33 on domain   3:     .18437 elapsed seconds
Timing for main: time 2016-02-05_12:47:46 on domain   3:     .16759 elapsed seconds
Timing for main: time 2016-02-05_12:48:00 on domain   3:     .16801 elapsed seconds
Timing for main: time 2016-02-05_12:47:40 on domain   4:     .21381 elapsed seconds
Timing for main: time 2016-02-05_12:48:00 on domain   4:     .20091 elapsed seconds
Timing for main: time 2016-02-05_12:48:00 on domain   2:    1.73932 elapsed seconds
Timing for main: time 2016-02-05_12:48:00 on domain   1:    5.48101 elapsed seconds
Timing for main: time 2016-02-05_12:48:13 on domain   3:     .18467 elapsed seconds
Timing for main: time 2016-02-05_12:48:26 on domain   3:     .16665 elapsed seconds
Timing for main: time 2016-02-05_12:48:40 on domain   3:     .16868 elapsed seconds
Timing for main: time 2016-02-05_12:48:20 on domain   4:     .21432 elapsed seconds
Timing for main: time 2016-02-05_12:48:40 on domain   4:     .20107 elapsed seconds
Timing for main: time 2016-02-05_12:48:40 on domain   2:    1.67142 elapsed seconds
Timing for main: time 2016-02-05_12:48:53 on domain   3:     .18516 elapsed seconds
Timing for main: time 2016-02-05_12:49:06 on domain   3:     .16774 elapsed seconds
Timing for main: time 2016-02-05_12:49:20 on domain   3:     .16733 elapsed seconds
Timing for main: time 2016-02-05_12:49:00 on domain   4:     .21426 elapsed seconds
Timing for main: time 2016-02-05_12:49:20 on domain   4:     .20002 elapsed seconds
Timing for main: time 2016-02-05_12:49:20 on domain   2:    1.66355 elapsed seconds
Timing for main: time 2016-02-05_12:49:33 on domain   3:     .18398 elapsed seconds
Timing for main: time 2016-02-05_12:49:46 on domain   3:     .16763 elapsed seconds
Timing for main: time 2016-02-05_12:50:00 on domain   3:     .16806 elapsed seconds
Timing for main: time 2016-02-05_12:49:40 on domain   4:     .21413 elapsed seconds
Timing for main: time 2016-02-05_12:50:00 on domain   4:     .20737 elapsed seconds
Timing for main: time 2016-02-05_12:50:00 on domain   2:    1.67065 elapsed seconds
Timing for main: time 2016-02-05_12:50:00 on domain   1:    5.37088 elapsed seconds
Timing for main: time 2016-02-05_12:50:13 on domain   3:     .18410 elapsed seconds
Timing for main: time 2016-02-05_12:50:26 on domain   3:     .16682 elapsed seconds
Timing for main: time 2016-02-05_12:50:40 on domain   3:     .16776 elapsed seconds
Timing for main: time 2016-02-05_12:50:20 on domain   4:     .21337 elapsed seconds
Timing for main: time 2016-02-05_12:50:40 on domain   4:     .20129 elapsed seconds
Timing for main: time 2016-02-05_12:50:40 on domain   2:    1.67120 elapsed seconds
Timing for main: time 2016-02-05_12:50:53 on domain   3:     .18565 elapsed seconds
Timing for main: time 2016-02-05_12:51:06 on domain   3:     .17283 elapsed seconds
Timing for main: time 2016-02-05_12:51:20 on domain   3:     .16832 elapsed seconds
Timing for main: time 2016-02-05_12:51:00 on domain   4:     .21361 elapsed seconds
Timing for main: time 2016-02-05_12:51:20 on domain   4:     .20012 elapsed seconds
Timing for main: time 2016-02-05_12:51:20 on domain   2:    1.66814 elapsed seconds
Timing for main: time 2016-02-05_12:51:33 on domain   3:     .18389 elapsed seconds
Timing for main: time 2016-02-05_12:51:46 on domain   3:     .16750 elapsed seconds
Timing for main: time 2016-02-05_12:52:00 on domain   3:     .16760 elapsed seconds
Timing for main: time 2016-02-05_12:51:40 on domain   4:     .21453 elapsed seconds
Timing for main: time 2016-02-05_12:52:00 on domain   4:     .19701 elapsed seconds
Timing for main: time 2016-02-05_12:52:00 on domain   2:    1.66058 elapsed seconds
Timing for main: time 2016-02-05_12:52:00 on domain   1:    5.36566 elapsed seconds
Timing for main: time 2016-02-05_12:52:13 on domain   3:     .18965 elapsed seconds
Timing for main: time 2016-02-05_12:52:26 on domain   3:     .16851 elapsed seconds
Timing for main: time 2016-02-05_12:52:40 on domain   3:     .16669 elapsed seconds
Timing for main: time 2016-02-05_12:52:20 on domain   4:     .21535 elapsed seconds
Timing for main: time 2016-02-05_12:52:40 on domain   4:     .19948 elapsed seconds
Timing for main: time 2016-02-05_12:52:40 on domain   2:    1.67631 elapsed seconds
Timing for main: time 2016-02-05_12:52:53 on domain   3:     .18865 elapsed seconds
Timing for main: time 2016-02-05_12:53:06 on domain   3:     .16804 elapsed seconds
Timing for main: time 2016-02-05_12:53:20 on domain   3:     .16782 elapsed seconds
Timing for main: time 2016-02-05_12:53:00 on domain   4:     .21420 elapsed seconds
Timing for main: time 2016-02-05_12:53:20 on domain   4:     .19972 elapsed seconds
Timing for main: time 2016-02-05_12:53:20 on domain   2:    1.67669 elapsed seconds
Timing for main: time 2016-02-05_12:53:33 on domain   3:     .18567 elapsed seconds
Timing for main: time 2016-02-05_12:53:46 on domain   3:     .16671 elapsed seconds
Timing for main: time 2016-02-05_12:54:00 on domain   3:     .17006 elapsed seconds
Timing for main: time 2016-02-05_12:53:40 on domain   4:     .21539 elapsed seconds
Timing for main: time 2016-02-05_12:54:00 on domain   4:     .20017 elapsed seconds
Timing for main: time 2016-02-05_12:54:00 on domain   2:    1.66851 elapsed seconds
Timing for main: time 2016-02-05_12:54:00 on domain   1:    5.40123 elapsed seconds
Timing for main: time 2016-02-05_12:54:13 on domain   3:     .18368 elapsed seconds
Timing for main: time 2016-02-05_12:54:26 on domain   3:     .16756 elapsed seconds
Timing for main: time 2016-02-05_12:54:40 on domain   3:     .16841 elapsed seconds
Timing for main: time 2016-02-05_12:54:20 on domain   4:     .21583 elapsed seconds
Timing for main: time 2016-02-05_12:54:40 on domain   4:     .19982 elapsed seconds
Timing for main: time 2016-02-05_12:54:40 on domain   2:    1.67439 elapsed seconds
Timing for main: time 2016-02-05_12:54:53 on domain   3:     .20082 elapsed seconds
Timing for main: time 2016-02-05_12:55:06 on domain   3:     .17773 elapsed seconds
Timing for main: time 2016-02-05_12:55:20 on domain   3:     .16618 elapsed seconds
Timing for main: time 2016-02-05_12:55:00 on domain   4:     .22168 elapsed seconds
Timing for main: time 2016-02-05_12:55:20 on domain   4:     .20210 elapsed seconds
Timing for main: time 2016-02-05_12:55:20 on domain   2:    1.71470 elapsed seconds
Timing for main: time 2016-02-05_12:55:33 on domain   3:     .18680 elapsed seconds
Timing for main: time 2016-02-05_12:55:46 on domain   3:     .16717 elapsed seconds
Timing for main: time 2016-02-05_12:56:00 on domain   3:     .16676 elapsed seconds
Timing for main: time 2016-02-05_12:55:40 on domain   4:     .21439 elapsed seconds
Timing for main: time 2016-02-05_12:56:00 on domain   4:     .19978 elapsed seconds
Timing for main: time 2016-02-05_12:56:00 on domain   2:    1.66472 elapsed seconds
Timing for main: time 2016-02-05_12:56:00 on domain   1:    5.41938 elapsed seconds
Timing for main: time 2016-02-05_12:56:13 on domain   3:     .19028 elapsed seconds
Timing for main: time 2016-02-05_12:56:26 on domain   3:     .16757 elapsed seconds
Timing for main: time 2016-02-05_12:56:40 on domain   3:     .16694 elapsed seconds
Timing for main: time 2016-02-05_12:56:20 on domain   4:     .21493 elapsed seconds
Timing for main: time 2016-02-05_12:56:40 on domain   4:     .19976 elapsed seconds
Timing for main: time 2016-02-05_12:56:40 on domain   2:    1.67680 elapsed seconds
Timing for main: time 2016-02-05_12:56:53 on domain   3:     .20650 elapsed seconds
Timing for main: time 2016-02-05_12:57:06 on domain   3:     .19591 elapsed seconds
Timing for main: time 2016-02-05_12:57:20 on domain   3:     .16845 elapsed seconds
Timing for main: time 2016-02-05_12:57:00 on domain   4:     .21463 elapsed seconds
Timing for main: time 2016-02-05_12:57:20 on domain   4:     .19981 elapsed seconds
Timing for main: time 2016-02-05_12:57:20 on domain   2:    1.76267 elapsed seconds
Timing for main: time 2016-02-05_12:57:33 on domain   3:     .18500 elapsed seconds
Timing for main: time 2016-02-05_12:57:46 on domain   3:     .16629 elapsed seconds
Timing for main: time 2016-02-05_12:58:00 on domain   3:     .16736 elapsed seconds
Timing for main: time 2016-02-05_12:57:40 on domain   4:     .21422 elapsed seconds
Timing for main: time 2016-02-05_12:58:00 on domain   4:     .19970 elapsed seconds
Timing for main: time 2016-02-05_12:58:00 on domain   2:    1.66195 elapsed seconds
Timing for main: time 2016-02-05_12:58:00 on domain   1:    5.46674 elapsed seconds
  photolysis_driver: called for domain  1
Timing for main: time 2016-02-05_12:58:13 on domain   3:     .18461 elapsed seconds
Timing for main: time 2016-02-05_12:58:26 on domain   3:     .16737 elapsed seconds
Timing for main: time 2016-02-05_12:58:40 on domain   3:     .16788 elapsed seconds
Timing for main: time 2016-02-05_12:58:20 on domain   4:     .21446 elapsed seconds
Timing for main: time 2016-02-05_12:58:40 on domain   4:     .20042 elapsed seconds
Timing for main: time 2016-02-05_12:58:40 on domain   2:    1.68142 elapsed seconds
Timing for main: time 2016-02-05_12:58:53 on domain   3:     .18531 elapsed seconds
Timing for main: time 2016-02-05_12:59:06 on domain   3:     .16663 elapsed seconds
Timing for main: time 2016-02-05_12:59:20 on domain   3:     .16927 elapsed seconds
Timing for main: time 2016-02-05_12:59:00 on domain   4:     .21485 elapsed seconds
Timing for main: time 2016-02-05_12:59:20 on domain   4:     .19952 elapsed seconds
Timing for main: time 2016-02-05_12:59:20 on domain   2:    1.66314 elapsed seconds
  photolysis_driver: called for domain  2
Timing for main: time 2016-02-05_12:59:33 on domain   3:     .18503 elapsed seconds
Timing for main: time 2016-02-05_12:59:46 on domain   3:     .16658 elapsed seconds
  photolysis_driver: called for domain  3
Timing for main: time 2016-02-05_13:00:00 on domain   3:     .78908 elapsed seconds
Timing for main: time 2016-02-05_12:59:40 on domain   4:     .21365 elapsed seconds
  photolysis_driver: called for domain  4
Timing for main: time 2016-02-05_13:00:00 on domain   4:     .92311 elapsed seconds
Timing for main: time 2016-02-05_13:00:00 on domain   2:    3.77503 elapsed seconds
Timing for main: time 2016-02-05_13:00:00 on domain   1:    7.93651 elapsed seconds
Timing for Writing wrfout_d01_2016-02-05_13:00:00 for domain        1:    2.44119 elapsed seconds
  HOURLY EMISSIONS UPDATE TIME     3600.0        .0
 mediation_integrate: med_read_wrf_chem_emissions: Read emissions for time 2016-02-05_13:00:00
 **WARNING** Time in input file not being checked **WARNING**
Timing for Writing wrfout_d02_2016-02-05_13:00:00 for domain        2:    3.30572 elapsed seconds
Timing for Writing wrfout_d03_2016-02-05_13:00:00 for domain        3:    3.01081 elapsed seconds
Timing for main: time 2016-02-05_13:00:13 on domain   3:    3.58999 elapsed seconds
Timing for main: time 2016-02-05_13:00:26 on domain   3:     .16901 elapsed seconds
Timing for main: time 2016-02-05_13:00:40 on domain   3:     .16731 elapsed seconds
Timing for Writing wrfout_d04_2016-02-05_13:00:00 for domain        4:    3.22075 elapsed seconds
Timing for main: time 2016-02-05_13:00:20 on domain   4:    3.64276 elapsed seconds
Timing for main: time 2016-02-05_13:00:40 on domain   4:     .20128 elapsed seconds
Timing for main: time 2016-02-05_13:00:40 on domain   2:   12.06798 elapsed seconds
Timing for main: time 2016-02-05_13:00:53 on domain   3:     .18595 elapsed seconds
Timing for main: time 2016-02-05_13:01:06 on domain   3:     .18057 elapsed seconds
Timing for main: time 2016-02-05_13:01:20 on domain   3:     .17302 elapsed seconds
Timing for main: time 2016-02-05_13:01:00 on domain   4:     .21282 elapsed seconds
Timing for main: time 2016-02-05_13:01:20 on domain   4:     .20106 elapsed seconds
Timing for main: time 2016-02-05_13:01:20 on domain   2:    1.68329 elapsed seconds
Timing for main: time 2016-02-05_13:01:33 on domain   3:     .18402 elapsed seconds
Timing for main: time 2016-02-05_13:01:46 on domain   3:     .16787 elapsed seconds
Timing for main: time 2016-02-05_13:02:00 on domain   3:     .16758 elapsed seconds
Timing for main: time 2016-02-05_13:01:40 on domain   4:     .21367 elapsed seconds
Timing for main: time 2016-02-05_13:02:00 on domain   4:     .20075 elapsed seconds
Timing for main: time 2016-02-05_13:02:00 on domain   2:    1.66209 elapsed seconds
Timing for main: time 2016-02-05_13:02:00 on domain   1:   18.73867 elapsed seconds
Timing for main: time 2016-02-05_13:02:13 on domain   3:     .18480 elapsed seconds
Timing for main: time 2016-02-05_13:02:26 on domain   3:     .16682 elapsed seconds
Timing for main: time 2016-02-05_13:02:40 on domain   3:     .16860 elapsed seconds
Timing for main: time 2016-02-05_13:02:20 on domain   4:     .21333 elapsed seconds
Timing for main: time 2016-02-05_13:02:40 on domain   4:     .20509 elapsed seconds
Timing for main: time 2016-02-05_13:02:40 on domain   2:    1.67785 elapsed seconds
Timing for main: time 2016-02-05_13:02:53 on domain   3:     .18499 elapsed seconds
Timing for main: time 2016-02-05_13:03:06 on domain   3:     .16587 elapsed seconds
Timing for main: time 2016-02-05_13:03:20 on domain   3:     .16805 elapsed seconds
Timing for main: time 2016-02-05_13:03:00 on domain   4:     .21465 elapsed seconds
Timing for main: time 2016-02-05_13:03:20 on domain   4:     .19979 elapsed seconds
Timing for main: time 2016-02-05_13:03:20 on domain   2:    1.66356 elapsed seconds
Timing for main: time 2016-02-05_13:03:33 on domain   3:     .18459 elapsed seconds
Timing for main: time 2016-02-05_13:03:46 on domain   3:     .16820 elapsed seconds
Timing for main: time 2016-02-05_13:04:00 on domain   3:     .16838 elapsed seconds
Timing for main: time 2016-02-05_13:03:40 on domain   4:     .21423 elapsed seconds
Timing for main: time 2016-02-05_13:04:00 on domain   4:     .20276 elapsed seconds
Timing for main: time 2016-02-05_13:04:00 on domain   2:    1.67477 elapsed seconds
Timing for main: time 2016-02-05_13:04:00 on domain   1:    5.38221 elapsed seconds
Timing for main: time 2016-02-05_13:04:13 on domain   3:     .18409 elapsed seconds
Timing for main: time 2016-02-05_13:04:26 on domain   3:     .16755 elapsed seconds
Timing for main: time 2016-02-05_13:04:40 on domain   3:     .17135 elapsed seconds
Timing for main: time 2016-02-05_13:04:20 on domain   4:     .21418 elapsed seconds
Timing for main: time 2016-02-05_13:04:40 on domain   4:     .20139 elapsed seconds
Timing for main: time 2016-02-05_13:04:40 on domain   2:    1.67554 elapsed seconds
Timing for main: time 2016-02-05_13:04:53 on domain   3:     .18433 elapsed seconds
Timing for main: time 2016-02-05_13:05:06 on domain   3:     .16814 elapsed seconds
Timing for main: time 2016-02-05_13:05:20 on domain   3:     .16678 elapsed seconds
Timing for main: time 2016-02-05_13:05:00 on domain   4:     .22072 elapsed seconds
Timing for main: time 2016-02-05_13:05:20 on domain   4:     .20007 elapsed seconds
Timing for main: time 2016-02-05_13:05:20 on domain   2:    1.66979 elapsed seconds
Timing for main: time 2016-02-05_13:05:33 on domain   3:     .18506 elapsed seconds
Timing for main: time 2016-02-05_13:05:46 on domain   3:     .16765 elapsed seconds
Timing for main: time 2016-02-05_13:06:00 on domain   3:     .16736 elapsed seconds
Timing for main: time 2016-02-05_13:05:40 on domain   4:     .21352 elapsed seconds
Timing for main: time 2016-02-05_13:06:00 on domain   4:     .20056 elapsed seconds
Timing for main: time 2016-02-05_13:06:00 on domain   2:    1.66812 elapsed seconds
Timing for main: time 2016-02-05_13:06:00 on domain   1:    5.38609 elapsed seconds
Timing for main: time 2016-02-05_13:06:13 on domain   3:     .18549 elapsed seconds
Timing for main: time 2016-02-05_13:06:26 on domain   3:     .17261 elapsed seconds
Timing for main: time 2016-02-05_13:06:40 on domain   3:     .16695 elapsed seconds
Timing for main: time 2016-02-05_13:06:20 on domain   4:     .21438 elapsed seconds
Timing for main: time 2016-02-05_13:06:40 on domain   4:     .20191 elapsed seconds
Timing for main: time 2016-02-05_13:06:40 on domain   2:    1.67814 elapsed seconds
Timing for main: time 2016-02-05_13:06:53 on domain   3:     .18464 elapsed seconds
Timing for main: time 2016-02-05_13:07:06 on domain   3:     .16780 elapsed seconds
Timing for main: time 2016-02-05_13:07:20 on domain   3:     .16796 elapsed seconds
Timing for main: time 2016-02-05_13:07:00 on domain   4:     .21585 elapsed seconds
Timing for main: time 2016-02-05_13:07:20 on domain   4:     .20036 elapsed seconds
Timing for main: time 2016-02-05_13:07:20 on domain   2:    1.66691 elapsed seconds
Timing for main: time 2016-02-05_13:07:33 on domain   3:     .18497 elapsed seconds
Timing for main: time 2016-02-05_13:07:46 on domain   3:     .16770 elapsed seconds
Timing for main: time 2016-02-05_13:08:00 on domain   3:     .16759 elapsed seconds
Timing for main: time 2016-02-05_13:07:40 on domain   4:     .21408 elapsed seconds
Timing for main: time 2016-02-05_13:08:00 on domain   4:     .20031 elapsed seconds
Timing for main: time 2016-02-05_13:08:00 on domain   2:    1.66364 elapsed seconds
Timing for main: time 2016-02-05_13:08:00 on domain   1:    5.37560 elapsed seconds
Timing for main: time 2016-02-05_13:08:13 on domain   3:     .18291 elapsed seconds
Timing for main: time 2016-02-05_13:08:26 on domain   3:     .16838 elapsed seconds
Timing for main: time 2016-02-05_13:08:40 on domain   3:     .16811 elapsed seconds
Timing for main: time 2016-02-05_13:08:20 on domain   4:     .21413 elapsed seconds
Timing for main: time 2016-02-05_13:08:40 on domain   4:     .20979 elapsed seconds
Timing for main: time 2016-02-05_13:08:40 on domain   2:    1.67997 elapsed seconds
Timing for main: time 2016-02-05_13:08:53 on domain   3:     .18443 elapsed seconds
Timing for main: time 2016-02-05_13:09:06 on domain   3:     .16788 elapsed seconds
Timing for main: time 2016-02-05_13:09:20 on domain   3:     .16682 elapsed seconds
Timing for main: time 2016-02-05_13:09:00 on domain   4:     .21332 elapsed seconds
Timing for main: time 2016-02-05_13:09:20 on domain   4:     .23563 elapsed seconds
Timing for main: time 2016-02-05_13:09:20 on domain   2:    1.71496 elapsed seconds
Timing for main: time 2016-02-05_13:09:33 on domain   3:     .18302 elapsed seconds
Timing for main: time 2016-02-05_13:09:46 on domain   3:     .16657 elapsed seconds
Timing for main: time 2016-02-05_13:10:00 on domain   3:     .16968 elapsed seconds
Timing for main: time 2016-02-05_13:09:40 on domain   4:     .21459 elapsed seconds
Timing for main: time 2016-02-05_13:10:00 on domain   4:     .20809 elapsed seconds
Timing for main: time 2016-02-05_13:10:00 on domain   2:    1.73970 elapsed seconds
Timing for main: time 2016-02-05_13:10:00 on domain   1:    5.50162 elapsed seconds
Timing for main: time 2016-02-05_13:10:13 on domain   3:     .18395 elapsed seconds
Timing for main: time 2016-02-05_13:10:26 on domain   3:     .16883 elapsed seconds
Timing for main: time 2016-02-05_13:10:40 on domain   3:     .16851 elapsed seconds
Timing for main: time 2016-02-05_13:10:20 on domain   4:     .21428 elapsed seconds
Timing for main: time 2016-02-05_13:10:40 on domain   4:     .20028 elapsed seconds
Timing for main: time 2016-02-05_13:10:40 on domain   2:    1.67245 elapsed seconds
Timing for main: time 2016-02-05_13:10:53 on domain   3:     .18515 elapsed seconds
Timing for main: time 2016-02-05_13:11:06 on domain   3:     .16734 elapsed seconds
Timing for main: time 2016-02-05_13:11:20 on domain   3:     .16696 elapsed seconds
Timing for main: time 2016-02-05_13:11:00 on domain   4:     .21380 elapsed seconds
Timing for main: time 2016-02-05_13:11:20 on domain   4:     .20011 elapsed seconds
Timing for main: time 2016-02-05_13:11:20 on domain   2:    1.66203 elapsed seconds
Timing for main: time 2016-02-05_13:11:33 on domain   3:     .19064 elapsed seconds
Timing for main: time 2016-02-05_13:11:46 on domain   3:     .16971 elapsed seconds
Timing for main: time 2016-02-05_13:12:00 on domain   3:     .16727 elapsed seconds
Timing for main: time 2016-02-05_13:11:40 on domain   4:     .21377 elapsed seconds
Timing for main: time 2016-02-05_13:12:00 on domain   4:     .19922 elapsed seconds
Timing for main: time 2016-02-05_13:12:00 on domain   2:    1.67074 elapsed seconds
Timing for main: time 2016-02-05_13:12:00 on domain   1:    5.38015 elapsed seconds
Timing for main: time 2016-02-05_13:12:13 on domain   3:     .18435 elapsed seconds
Timing for main: time 2016-02-05_13:12:26 on domain   3:     .16710 elapsed seconds
Timing for main: time 2016-02-05_13:12:40 on domain   3:     .16758 elapsed seconds
Timing for main: time 2016-02-05_13:12:20 on domain   4:     .21227 elapsed seconds
Timing for main: time 2016-02-05_13:12:40 on domain   4:     .20069 elapsed seconds
Timing for main: time 2016-02-05_13:12:40 on domain   2:    1.66932 elapsed seconds
Timing for main: time 2016-02-05_13:12:53 on domain   3:     .18379 elapsed seconds
Timing for main: time 2016-02-05_13:13:06 on domain   3:     .16750 elapsed seconds
Timing for main: time 2016-02-05_13:13:20 on domain   3:     .17505 elapsed seconds
Timing for main: time 2016-02-05_13:13:00 on domain   4:     .21387 elapsed seconds
Timing for main: time 2016-02-05_13:13:20 on domain   4:     .19962 elapsed seconds
Timing for main: time 2016-02-05_13:13:20 on domain   2:    1.66302 elapsed seconds
Timing for main: time 2016-02-05_13:13:33 on domain   3:     .18463 elapsed seconds
Timing for main: time 2016-02-05_13:13:46 on domain   3:     .16727 elapsed seconds
Timing for main: time 2016-02-05_13:14:00 on domain   3:     .16730 elapsed seconds
Timing for main: time 2016-02-05_13:13:40 on domain   4:     .21204 elapsed seconds
Timing for main: time 2016-02-05_13:14:00 on domain   4:     .20033 elapsed seconds
Timing for main: time 2016-02-05_13:14:00 on domain   2:    1.66177 elapsed seconds
Timing for main: time 2016-02-05_13:14:00 on domain   1:    5.36128 elapsed seconds
Timing for main: time 2016-02-05_13:14:13 on domain   3:     .18559 elapsed seconds
Timing for main: time 2016-02-05_13:14:26 on domain   3:     .16670 elapsed seconds
Timing for main: time 2016-02-05_13:14:40 on domain   3:     .16728 elapsed seconds
Timing for main: time 2016-02-05_13:14:20 on domain   4:     .21418 elapsed seconds
Timing for main: time 2016-02-05_13:14:40 on domain   4:     .19991 elapsed seconds
Timing for main: time 2016-02-05_13:14:40 on domain   2:    1.67764 elapsed seconds
Timing for main: time 2016-02-05_13:14:53 on domain   3:     .18428 elapsed seconds
Timing for main: time 2016-02-05_13:15:06 on domain   3:     .16720 elapsed seconds
Timing for main: time 2016-02-05_13:15:20 on domain   3:     .16831 elapsed seconds
Timing for main: time 2016-02-05_13:15:00 on domain   4:     .24212 elapsed seconds
Timing for main: time 2016-02-05_13:15:20 on domain   4:     .27388 elapsed seconds
Timing for main: time 2016-02-05_13:15:20 on domain   2:    1.77893 elapsed seconds
Timing for main: time 2016-02-05_13:15:33 on domain   3:     .18500 elapsed seconds
Timing for main: time 2016-02-05_13:15:46 on domain   3:     .16650 elapsed seconds
Timing for main: time 2016-02-05_13:16:00 on domain   3:     .16686 elapsed seconds
Timing for main: time 2016-02-05_13:15:40 on domain   4:     .21376 elapsed seconds
Timing for main: time 2016-02-05_13:16:00 on domain   4:     .19954 elapsed seconds
Timing for main: time 2016-02-05_13:16:00 on domain   2:    1.66121 elapsed seconds
Timing for main: time 2016-02-05_13:16:00 on domain   1:    5.48315 elapsed seconds
Timing for main: time 2016-02-05_13:16:13 on domain   3:     .18490 elapsed seconds
Timing for main: time 2016-02-05_13:16:26 on domain   3:     .16736 elapsed seconds
Timing for main: time 2016-02-05_13:16:40 on domain   3:     .17362 elapsed seconds
Timing for main: time 2016-02-05_13:16:20 on domain   4:     .21344 elapsed seconds
Timing for main: time 2016-02-05_13:16:40 on domain   4:     .19902 elapsed seconds
Timing for main: time 2016-02-05_13:16:40 on domain   2:    1.67494 elapsed seconds
Timing for main: time 2016-02-05_13:16:53 on domain   3:     .18496 elapsed seconds
Timing for main: time 2016-02-05_13:17:06 on domain   3:     .16735 elapsed seconds
Timing for main: time 2016-02-05_13:17:20 on domain   3:     .16671 elapsed seconds
Timing for main: time 2016-02-05_13:17:00 on domain   4:     .21397 elapsed seconds
Timing for main: time 2016-02-05_13:17:20 on domain   4:     .20053 elapsed seconds
Timing for main: time 2016-02-05_13:17:20 on domain   2:    1.66301 elapsed seconds
Timing for main: time 2016-02-05_13:17:33 on domain   3:     .18401 elapsed seconds
Timing for main: time 2016-02-05_13:17:46 on domain   3:     .16696 elapsed seconds
[...]
Timing for main: time 2016-02-05_17:36:00 on domain   2:    1.67726 elapsed seconds
Timing for main: time 2016-02-05_17:36:00 on domain   1:    5.40075 elapsed seconds
Timing for main: time 2016-02-05_17:36:13 on domain   3:     .18486 elapsed seconds
Timing for main: time 2016-02-05_17:36:26 on domain   3:     .20659 elapsed seconds
Timing for main: time 2016-02-05_17:36:40 on domain   3:     .21777 elapsed seconds
Timing for main: time 2016-02-05_17:36:20 on domain   4:     .21318 elapsed seconds
Timing for main: time 2016-02-05_17:36:40 on domain   4:     .20245 elapsed seconds
Timing for main: time 2016-02-05_17:36:40 on domain   2:    1.75257 elapsed seconds
Timing for main: time 2016-02-05_17:36:53 on domain   3:     .18443 elapsed seconds
Timing for main: time 2016-02-05_17:37:06 on domain   3:     .16772 elapsed seconds
Timing for main: time 2016-02-05_17:37:20 on domain   3:     .17291 elapsed seconds
Timing for main: time 2016-02-05_17:37:00 on domain   4:     .21222 elapsed seconds
Timing for main: time 2016-02-05_17:37:20 on domain   4:     .20035 elapsed seconds
Timing for main: time 2016-02-05_17:37:20 on domain   2:    1.67050 elapsed seconds
Timing for main: time 2016-02-05_17:37:33 on domain   3:     .18450 elapsed seconds
Timing for main: time 2016-02-05_17:37:46 on domain   3:     .16703 elapsed seconds
Timing for main: time 2016-02-05_17:38:00 on domain   3:     .16727 elapsed seconds
Timing for main: time 2016-02-05_17:37:40 on domain   4:     .21558 elapsed seconds
Timing for main: time 2016-02-05_17:38:00 on domain   4:     .20163 elapsed seconds
Timing for main: time 2016-02-05_17:38:00 on domain   2:    1.66971 elapsed seconds
Timing for main: time 2016-02-05_17:38:00 on domain   1:    5.46108 elapsed seconds
Timing for main: time 2016-02-05_17:38:13 on domain   3:     .18414 elapsed seconds
Timing for main: time 2016-02-05_17:38:26 on domain   3:     .16789 elapsed seconds
Timing for main: time 2016-02-05_17:38:40 on domain   3:     .16726 elapsed seconds
Timing for main: time 2016-02-05_17:38:20 on domain   4:     .21441 elapsed seconds
Timing for main: time 2016-02-05_17:38:40 on domain   4:     .19802 elapsed seconds
Timing for main: time 2016-02-05_17:38:40 on domain   2:    1.67263 elapsed seconds
Timing for main: time 2016-02-05_17:38:53 on domain   3:     .18374 elapsed seconds
Timing for main: time 2016-02-05_17:39:06 on domain   3:     .16688 elapsed seconds
Timing for main: time 2016-02-05_17:39:20 on domain   3:     .16762 elapsed seconds
Timing for main: time 2016-02-05_17:39:00 on domain   4:     .21192 elapsed seconds
Timing for main: time 2016-02-05_17:39:20 on domain   4:     .20072 elapsed seconds
Timing for main: time 2016-02-05_17:39:20 on domain   2:    1.66658 elapsed seconds
Timing for main: time 2016-02-05_17:39:33 on domain   3:     .18428 elapsed seconds
Timing for main: time 2016-02-05_17:39:46 on domain   3:     .16743 elapsed seconds
Timing for main: time 2016-02-05_17:40:00 on domain   3:     .16935 elapsed seconds
Timing for main: time 2016-02-05_17:39:40 on domain   4:     .21310 elapsed seconds
Timing for main: time 2016-02-05_17:40:00 on domain   4:     .20896 elapsed seconds
Timing for main: time 2016-02-05_17:40:00 on domain   2:    1.67754 elapsed seconds
Timing for main: time 2016-02-05_17:40:00 on domain   1:    5.38233 elapsed seconds
Timing for main: time 2016-02-05_17:40:13 on domain   3:     .18392 elapsed seconds
Timing for main: time 2016-02-05_17:40:26 on domain   3:     .16757 elapsed seconds
Timing for main: time 2016-02-05_17:40:40 on domain   3:     .16879 elapsed seconds
Timing for main: time 2016-02-05_17:40:20 on domain   4:     .21585 elapsed seconds
Timing for main: time 2016-02-05_17:40:40 on domain   4:     .22238 elapsed seconds
Timing for main: time 2016-02-05_17:40:40 on domain   2:    1.69772 elapsed seconds
Timing for main: time 2016-02-05_17:40:53 on domain   3:     .18418 elapsed seconds
Timing for main: time 2016-02-05_17:41:06 on domain   3:     .16711 elapsed seconds
Timing for main: time 2016-02-05_17:41:20 on domain   3:     .16891 elapsed seconds
Timing for main: time 2016-02-05_17:41:00 on domain   4:     .21156 elapsed seconds
Timing for main: time 2016-02-05_17:41:20 on domain   4:     .20079 elapsed seconds
Timing for main: time 2016-02-05_17:41:20 on domain   2:    1.67690 elapsed seconds
Timing for main: time 2016-02-05_17:41:33 on domain   3:     .18714 elapsed seconds
Timing for main: time 2016-02-05_17:41:46 on domain   3:     .16761 elapsed seconds
Timing for main: time 2016-02-05_17:42:00 on domain   3:     .16744 elapsed seconds
Timing for main: time 2016-02-05_17:41:40 on domain   4:     .21213 elapsed seconds
Timing for main: time 2016-02-05_17:42:00 on domain   4:     .20058 elapsed seconds
Timing for main: time 2016-02-05_17:42:00 on domain   2:    1.66893 elapsed seconds
Timing for main: time 2016-02-05_17:42:00 on domain   1:    5.41490 elapsed seconds
Timing for main: time 2016-02-05_17:42:13 on domain   3:     .19247 elapsed seconds
Timing for main: time 2016-02-05_17:42:26 on domain   3:     .18605 elapsed seconds
Timing for main: time 2016-02-05_17:42:40 on domain   3:     .16833 elapsed seconds
Timing for main: time 2016-02-05_17:42:20 on domain   4:     .21243 elapsed seconds
Timing for main: time 2016-02-05_17:42:40 on domain   4:     .20012 elapsed seconds
Timing for main: time 2016-02-05_17:42:40 on domain   2:    1.72073 elapsed seconds
Timing for main: time 2016-02-05_17:42:53 on domain   3:     .18422 elapsed seconds
Timing for main: time 2016-02-05_17:43:06 on domain   3:     .17132 elapsed seconds
Timing for main: time 2016-02-05_17:43:20 on domain   3:     .16702 elapsed seconds
Timing for main: time 2016-02-05_17:43:00 on domain   4:     .21323 elapsed seconds
Timing for main: time 2016-02-05_17:43:20 on domain   4:     .20089 elapsed seconds
Timing for main: time 2016-02-05_17:43:20 on domain   2:    1.67038 elapsed seconds
Timing for main: time 2016-02-05_17:43:33 on domain   3:     .18525 elapsed seconds
Timing for main: time 2016-02-05_17:43:46 on domain   3:     .16987 elapsed seconds
Timing for main: time 2016-02-05_17:44:00 on domain   3:     .16765 elapsed seconds
Timing for main: time 2016-02-05_17:43:40 on domain   4:     .21334 elapsed seconds
Timing for main: time 2016-02-05_17:44:00 on domain   4:     .20334 elapsed seconds
Timing for main: time 2016-02-05_17:44:00 on domain   2:    1.67168 elapsed seconds
Timing for main: time 2016-02-05_17:44:00 on domain   1:    5.46690 elapsed seconds
Timing for main: time 2016-02-05_17:44:13 on domain   3:     .18540 elapsed seconds
Timing for main: time 2016-02-05_17:44:26 on domain   3:     .16707 elapsed seconds
Timing for main: time 2016-02-05_17:44:40 on domain   3:     .16790 elapsed seconds
Timing for main: time 2016-02-05_17:44:20 on domain   4:     .21217 elapsed seconds
Timing for main: time 2016-02-05_17:44:40 on domain   4:     .20655 elapsed seconds
Timing for main: time 2016-02-05_17:44:40 on domain   2:    1.68022 elapsed seconds
Timing for main: time 2016-02-05_17:44:53 on domain   3:     .18426 elapsed seconds
Timing for main: time 2016-02-05_17:45:06 on domain   3:     .16811 elapsed seconds
Timing for main: time 2016-02-05_17:45:20 on domain   3:     .16642 elapsed seconds
Timing for main: time 2016-02-05_17:45:00 on domain   4:     .21991 elapsed seconds
Timing for main: time 2016-02-05_17:45:20 on domain   4:     .20397 elapsed seconds
Timing for main: time 2016-02-05_17:45:20 on domain   2:    1.67520 elapsed seconds
Timing for main: time 2016-02-05_17:45:33 on domain   3:     .18470 elapsed seconds
Timing for main: time 2016-02-05_17:45:46 on domain   3:     .16727 elapsed seconds
Timing for main: time 2016-02-05_17:46:00 on domain   3:     .16796 elapsed seconds
Timing for main: time 2016-02-05_17:45:40 on domain   4:     .23911 elapsed seconds
Timing for main: time 2016-02-05_17:46:00 on domain   4:     .24312 elapsed seconds
Timing for main: time 2016-02-05_17:46:00 on domain   2:    1.73672 elapsed seconds
Timing for main: time 2016-02-05_17:46:00 on domain   1:    5.54927 elapsed seconds
Timing for main: time 2016-02-05_17:46:13 on domain   3:     .18454 elapsed seconds
Timing for main: time 2016-02-05_17:46:26 on domain   3:     .16674 elapsed seconds
Timing for main: time 2016-02-05_17:46:40 on domain   3:     .16751 elapsed seconds
Timing for main: time 2016-02-05_17:46:20 on domain   4:     .21190 elapsed seconds
Timing for main: time 2016-02-05_17:46:40 on domain   4:     .20054 elapsed seconds
Timing for main: time 2016-02-05_17:46:40 on domain   2:    1.68025 elapsed seconds
Timing for main: time 2016-02-05_17:46:53 on domain   3:     .18525 elapsed seconds
Timing for main: time 2016-02-05_17:47:06 on domain   3:     .16806 elapsed seconds
Timing for main: time 2016-02-05_17:47:20 on domain   3:     .16916 elapsed seconds
Timing for main: time 2016-02-05_17:47:00 on domain   4:     .21207 elapsed seconds
Timing for main: time 2016-02-05_17:47:20 on domain   4:     .20054 elapsed seconds
Timing for main: time 2016-02-05_17:47:20 on domain   2:    1.66862 elapsed seconds
Timing for main: time 2016-02-05_17:47:33 on domain   3:     .19021 elapsed seconds
Timing for main: time 2016-02-05_17:47:46 on domain   3:     .16806 elapsed seconds
Timing for main: time 2016-02-05_17:48:00 on domain   3:     .16832 elapsed seconds
Timing for main: time 2016-02-05_17:47:40 on domain   4:     .21285 elapsed seconds
Timing for main: time 2016-02-05_17:48:00 on domain   4:     .20017 elapsed seconds
Timing for main: time 2016-02-05_17:48:00 on domain   2:    1.67362 elapsed seconds
Timing for main: time 2016-02-05_17:48:00 on domain   1:    5.41336 elapsed seconds
Timing for main: time 2016-02-05_17:48:13 on domain   3:     .18416 elapsed seconds
Timing for main: time 2016-02-05_17:48:26 on domain   3:     .16842 elapsed seconds
Timing for main: time 2016-02-05_17:48:40 on domain   3:     .17010 elapsed seconds
Timing for main: time 2016-02-05_17:48:20 on domain   4:     .21265 elapsed seconds
Timing for main: time 2016-02-05_17:48:40 on domain   4:     .19967 elapsed seconds
Timing for main: time 2016-02-05_17:48:40 on domain   2:    1.67450 elapsed seconds
Timing for main: time 2016-02-05_17:48:53 on domain   3:     .18761 elapsed seconds
Timing for main: time 2016-02-05_17:49:06 on domain   3:     .16420 elapsed seconds
Timing for main: time 2016-02-05_17:49:20 on domain   3:     .16811 elapsed seconds
Timing for main: time 2016-02-05_17:49:00 on domain   4:     .21373 elapsed seconds
Timing for main: time 2016-02-05_17:49:20 on domain   4:     .20038 elapsed seconds
Timing for main: time 2016-02-05_17:49:20 on domain   2:    1.66661 elapsed seconds
Timing for main: time 2016-02-05_17:49:33 on domain   3:     .18543 elapsed seconds
Timing for main: time 2016-02-05_17:49:46 on domain   3:     .16731 elapsed seconds
Timing for main: time 2016-02-05_17:50:00 on domain   3:     .16788 elapsed seconds
Timing for main: time 2016-02-05_17:49:40 on domain   4:     .21430 elapsed seconds
Timing for main: time 2016-02-05_17:50:00 on domain   4:     .20760 elapsed seconds
Timing for main: time 2016-02-05_17:50:00 on domain   2:    1.67387 elapsed seconds
Timing for main: time 2016-02-05_17:50:00 on domain   1:    5.38103 elapsed seconds
Timing for main: time 2016-02-05_17:50:13 on domain   3:     .18395 elapsed seconds
Timing for main: time 2016-02-05_17:50:26 on domain   3:     .16952 elapsed seconds
Timing for main: time 2016-02-05_17:50:40 on domain   3:     .16788 elapsed seconds
Timing for main: time 2016-02-05_17:50:20 on domain   4:     .21205 elapsed seconds
Timing for main: time 2016-02-05_17:50:40 on domain   4:     .19999 elapsed seconds
Timing for main: time 2016-02-05_17:50:40 on domain   2:    1.67089 elapsed seconds
Timing for main: time 2016-02-05_17:50:53 on domain   3:     .18441 elapsed seconds
Timing for main: time 2016-02-05_17:51:06 on domain   3:     .16820 elapsed seconds
Timing for main: time 2016-02-05_17:51:20 on domain   3:     .16764 elapsed seconds
Timing for main: time 2016-02-05_17:51:00 on domain   4:     .21214 elapsed seconds
Timing for main: time 2016-02-05_17:51:20 on domain   4:     .19982 elapsed seconds
Timing for main: time 2016-02-05_17:51:20 on domain   2:    1.66451 elapsed seconds
Timing for main: time 2016-02-05_17:51:33 on domain   3:     .18487 elapsed seconds
Timing for main: time 2016-02-05_17:51:46 on domain   3:     .16755 elapsed seconds
Timing for main: time 2016-02-05_17:52:00 on domain   3:     .16944 elapsed seconds
Timing for main: time 2016-02-05_17:51:40 on domain   4:     .21187 elapsed seconds
Timing for main: time 2016-02-05_17:52:00 on domain   4:     .20011 elapsed seconds
Timing for main: time 2016-02-05_17:52:00 on domain   2:    1.67350 elapsed seconds
Timing for main: time 2016-02-05_17:52:00 on domain   1:    5.37451 elapsed seconds
Timing for main: time 2016-02-05_17:52:13 on domain   3:     .18458 elapsed seconds
Timing for main: time 2016-02-05_17:52:26 on domain   3:     .16677 elapsed seconds
Timing for main: time 2016-02-05_17:52:40 on domain   3:     .17356 elapsed seconds
Timing for main: time 2016-02-05_17:52:20 on domain   4:     .21531 elapsed seconds
Timing for main: time 2016-02-05_17:52:40 on domain   4:     .19995 elapsed seconds
Timing for main: time 2016-02-05_17:52:40 on domain   2:    1.67725 elapsed seconds
Timing for main: time 2016-02-05_17:52:53 on domain   3:     .18436 elapsed seconds
Timing for main: time 2016-02-05_17:53:06 on domain   3:     .16716 elapsed seconds
Timing for main: time 2016-02-05_17:53:20 on domain   3:     .16766 elapsed seconds
Timing for main: time 2016-02-05_17:53:00 on domain   4:     .21365 elapsed seconds
Timing for main: time 2016-02-05_17:53:20 on domain   4:     .20047 elapsed seconds
Timing for main: time 2016-02-05_17:53:20 on domain   2:    1.66408 elapsed seconds
Timing for main: time 2016-02-05_17:53:33 on domain   3:     .18455 elapsed seconds
Timing for main: time 2016-02-05_17:53:46 on domain   3:     .16709 elapsed seconds
Timing for main: time 2016-02-05_17:54:00 on domain   3:     .16768 elapsed seconds
Timing for main: time 2016-02-05_17:53:40 on domain   4:     .21222 elapsed seconds
Timing for main: time 2016-02-05_17:54:00 on domain   4:     .19982 elapsed seconds
Timing for main: time 2016-02-05_17:54:00 on domain   2:    1.66320 elapsed seconds
Timing for main: time 2016-02-05_17:54:00 on domain   1:    5.37555 elapsed seconds
Timing for main: time 2016-02-05_17:54:13 on domain   3:     .18420 elapsed seconds
Timing for main: time 2016-02-05_17:54:26 on domain   3:     .16801 elapsed seconds
Timing for main: time 2016-02-05_17:54:40 on domain   3:     .16743 elapsed seconds
Timing for main: time 2016-02-05_17:54:20 on domain   4:     .21288 elapsed seconds
Timing for main: time 2016-02-05_17:54:40 on domain   4:     .20124 elapsed seconds
Timing for main: time 2016-02-05_17:54:40 on domain   2:    1.67144 elapsed seconds
Timing for main: time 2016-02-05_17:54:53 on domain   3:     .18372 elapsed seconds
Timing for main: time 2016-02-05_17:55:06 on domain   3:     .16811 elapsed seconds
Timing for main: time 2016-02-05_17:55:20 on domain   3:     .17597 elapsed seconds
Timing for main: time 2016-02-05_17:55:00 on domain   4:     .21988 elapsed seconds
Timing for main: time 2016-02-05_17:55:20 on domain   4:     .20029 elapsed seconds
Timing for main: time 2016-02-05_17:55:20 on domain   2:    1.68000 elapsed seconds
Timing for main: time 2016-02-05_17:55:33 on domain   3:     .18382 elapsed seconds
Timing for main: time 2016-02-05_17:55:46 on domain   3:     .16782 elapsed seconds
Timing for main: time 2016-02-05_17:56:00 on domain   3:     .16766 elapsed seconds
Timing for main: time 2016-02-05_17:55:40 on domain   4:     .21300 elapsed seconds
Timing for main: time 2016-02-05_17:56:00 on domain   4:     .20170 elapsed seconds
Timing for main: time 2016-02-05_17:56:00 on domain   2:    1.66462 elapsed seconds
Timing for main: time 2016-02-05_17:56:00 on domain   1:    5.40580 elapsed seconds
Timing for main: time 2016-02-05_17:56:13 on domain   3:     .18434 elapsed seconds
Timing for main: time 2016-02-05_17:56:26 on domain   3:     .16761 elapsed seconds
Timing for main: time 2016-02-05_17:56:40 on domain   3:     .16938 elapsed seconds
Timing for main: time 2016-02-05_17:56:20 on domain   4:     .21326 elapsed seconds
Timing for main: time 2016-02-05_17:56:40 on domain   4:     .20039 elapsed seconds
Timing for main: time 2016-02-05_17:56:40 on domain   2:    1.67097 elapsed seconds
Timing for main: time 2016-02-05_17:56:53 on domain   3:     .18533 elapsed seconds
Timing for main: time 2016-02-05_17:57:06 on domain   3:     .16780 elapsed seconds
Timing for main: time 2016-02-05_17:57:20 on domain   3:     .17155 elapsed seconds
Timing for main: time 2016-02-05_17:57:00 on domain   4:     .21407 elapsed seconds
Timing for main: time 2016-02-05_17:57:20 on domain   4:     .20005 elapsed seconds
Timing for main: time 2016-02-05_17:57:20 on domain   2:    1.67901 elapsed seconds
Timing for main: time 2016-02-05_17:57:33 on domain   3:     .18533 elapsed seconds
Timing for main: time 2016-02-05_17:57:46 on domain   3:     .17404 elapsed seconds
Timing for main: time 2016-02-05_17:58:00 on domain   3:     .16701 elapsed seconds
Timing for main: time 2016-02-05_17:57:40 on domain   4:     .21335 elapsed seconds
Timing for main: time 2016-02-05_17:58:00 on domain   4:     .19993 elapsed seconds
Timing for main: time 2016-02-05_17:58:00 on domain   2:    1.67150 elapsed seconds
Timing for main: time 2016-02-05_17:58:00 on domain   1:    5.38600 elapsed seconds
  photolysis_driver: called for domain  1
Timing for main: time 2016-02-05_17:58:13 on domain   3:     .18430 elapsed seconds
Timing for main: time 2016-02-05_17:58:26 on domain   3:     .16721 elapsed seconds
Timing for main: time 2016-02-05_17:58:40 on domain   3:     .16789 elapsed seconds
Timing for main: time 2016-02-05_17:58:20 on domain   4:     .21270 elapsed seconds
Timing for main: time 2016-02-05_17:58:40 on domain   4:     .20111 elapsed seconds
Timing for main: time 2016-02-05_17:58:40 on domain   2:    1.67216 elapsed seconds
Timing for main: time 2016-02-05_17:58:53 on domain   3:     .18409 elapsed seconds
Timing for main: time 2016-02-05_17:59:06 on domain   3:     .16686 elapsed seconds
Timing for main: time 2016-02-05_17:59:20 on domain   3:     .16814 elapsed seconds
Timing for main: time 2016-02-05_17:59:00 on domain   4:     .21198 elapsed seconds
Timing for main: time 2016-02-05_17:59:20 on domain   4:     .20042 elapsed seconds
Timing for main: time 2016-02-05_17:59:20 on domain   2:    1.66547 elapsed seconds
  photolysis_driver: called for domain  2
Timing for main: time 2016-02-05_17:59:33 on domain   3:     .18466 elapsed seconds
Timing for main: time 2016-02-05_17:59:46 on domain   3:     .16881 elapsed seconds
  photolysis_driver: called for domain  3
Timing for main: time 2016-02-05_18:00:00 on domain   3:     .79126 elapsed seconds
Timing for Writing wrfout_d03_2016-02-05_18:00:00 for domain        3:    2.93584 elapsed seconds
Timing for main: time 2016-02-05_17:59:40 on domain   4:     .21168 elapsed seconds
  photolysis_driver: called for domain  4
Timing for main: time 2016-02-05_18:00:00 on domain   4:     .92141 elapsed seconds
Timing for Writing wrfout_d04_2016-02-05_18:00:00 for domain        4:    3.29110 elapsed seconds
Timing for main: time 2016-02-05_18:00:00 on domain   2:   10.01263 elapsed seconds
Timing for Writing wrfout_d02_2016-02-05_18:00:00 for domain        2:    3.81975 elapsed seconds
Timing for main: time 2016-02-05_18:00:00 on domain   1:   17.93157 elapsed seconds
Timing for Writing wrfout_d01_2016-02-05_18:00:00 for domain        1:    2.80215 elapsed seconds
 d01 2016-02-05_18:00:00 wrf: SUCCESS COMPLETE WRF
