taskid: 0 hostname: p10a51.pbm.ihost.com
  Ntasks in X  10 , ntasks in Y  10
 Setting blank km_opt entries to domain #1 values.
  --> The km_opt entry in the namelist.input is now max_domains.
 Setting blank diff_opt entries to domain #1 values.
  --> The diff_opt entry in the namelist.input is now max_domains.
 --- WARNING: traj_opt is zero, but num_traj is not zero; setting num_traj to zero.
 --- NOTE: hypsometric_opt is 2, setting adjust_heights = F
 --- NOTE: sst_update is 0, setting io_form_auxinput4 = 0 and auxinput4_interval = 0 for all domains
 --- NOTE: sst_update is 0, setting io_form_auxinput4 = 0 and auxinput4_interval = 0 for all domains
 --- NOTE: sst_update is 0, setting io_form_auxinput4 = 0 and auxinput4_interval = 0 for all domains
 --- NOTE: sst_update is 0, setting io_form_auxinput4 = 0 and auxinput4_interval = 0 for all domains
 --- NOTE: grid_fdda is 0 for domain      1, setting gfdda interval and ending time to 0 for that domain.
 --- NOTE: both grid_sfdda and pxlsm_soil_nudge are 0 for domain      1, setting sgfdda interval and ending time to 0 for that domain.
 --- NOTE: obs_nudge_opt is 0 for domain      1, setting obs nudging interval and ending time to 0 for that domain.
 --- NOTE: grid_fdda is 0 for domain      2, setting gfdda interval and ending time to 0 for that domain.
 --- NOTE: both grid_sfdda and pxlsm_soil_nudge are 0 for domain      2, setting sgfdda interval and ending time to 0 for that domain.
 --- NOTE: obs_nudge_opt is 0 for domain      2, setting obs nudging interval and ending time to 0 for that domain.
 --- NOTE: grid_fdda is 0 for domain      3, setting gfdda interval and ending time to 0 for that domain.
 --- NOTE: both grid_sfdda and pxlsm_soil_nudge are 0 for domain      3, setting sgfdda interval and ending time to 0 for that domain.
 --- NOTE: obs_nudge_opt is 0 for domain      3, setting obs nudging interval and ending time to 0 for that domain.
 --- NOTE: grid_fdda is 0 for domain      4, setting gfdda interval and ending time to 0 for that domain.
 --- NOTE: both grid_sfdda and pxlsm_soil_nudge are 0 for domain      4, setting sgfdda interval and ending time to 0 for that domain.
 --- NOTE: obs_nudge_opt is 0 for domain      4, setting obs nudging interval and ending time to 0 for that domain.
 bl_pbl_physics /= 4, implies mfshconv must be 0, resetting
 --- NOTE: num_soil_layers has been set to      4
 WRF V3.6 MODEL
  *************************************
  Parent domain
  ids,ide,jds,jde  1 271 1 181
  ims,ime,jms,jme  -4 34 -4 25
  ips,ipe,jps,jpe  1 27 1 18
  *************************************
 DYNAMICS OPTION: Eulerian Mass Coordinate
    alloc_space_field: domain  1 ,  117661256  bytes allocated
   med_initialdata_input: calling input_input
Timing for processing wrfinput file (stream 0) for domain        1:    4.21487 elapsed seconds
 INPUT LandUse = "USGS"
  LANDUSE TYPE = "USGS" FOUND 33  CATEGORIES 2  SEASONS WATER CATEGORY =  16  SNOW CATEGORY =  24
 INITIALIZE THREE Noah LSM RELATED TABLES
  LANDUSE TYPE = USGS FOUND 27  CATEGORIES
  INPUT SOIL TEXTURE CLASSIFICATION = STAS
  SOIL TEXTURE CLASSIFICATION = STAS FOUND 19  CATEGORIES
 *********************************************************************
 *             PROGRAM:WRF/CHEM V3.6 MODEL
 *                                                                   *
 *    PLEASE REPORT ANY BUGS TO WRF/CHEM HELP at                     *
 *                                                                   *
 *              wrfchemhelp.gsd@noaa.gov                             *
 *                                                                   *
 *********************************************************************
 WARNING: dust option 1 currently works only with the GOCART aerosol option.
 WARNING: sea salt option 1 currently works only with the GOCART aerosol option.
  *************************************
  Nesting domain
  ids,ide,jds,jde  1 361 1 253
  ims,ime,jms,jme  -4 48 -4 36
  ips,ipe,jps,jpe  1 36 1 26
  INTERMEDIATE domain
  ids,ide,jds,jde  74 199 47 136
  ims,ime,jms,jme  69 97 42 67
  ips,ipe,jps,jpe  72 87 45 57
  *************************************
 d01 2016-02-05_12:00:00  alloc_space_field: domain  2 ,  213545948  bytes allocated
 d01 2016-02-05_12:00:00  alloc_space_field: domain  2 ,  9497384  bytes allocated
 d01 2016-02-05_12:00:00 *** Initializing nest domain # 2 from an input file. ***
 d01 2016-02-05_12:00:00 med_initialdata_input: calling input_input
Timing for processing wrfinput file (stream 0) for domain        2:    6.55142 elapsed seconds
 INPUT LandUse = "USGS"
  LANDUSE TYPE = "USGS" FOUND 33  CATEGORIES 2  SEASONS WATER CATEGORY =  16  SNOW CATEGORY =  24
 INITIALIZE THREE Noah LSM RELATED TABLES
  LANDUSE TYPE = USGS FOUND 27  CATEGORIES
  INPUT SOIL TEXTURE CLASSIFICATION = STAS
  SOIL TEXTURE CLASSIFICATION = STAS FOUND 19  CATEGORIES
 *********************************************************************
 *             PROGRAM:WRF/CHEM V3.6 MODEL
 *                                                                   *
 *    PLEASE REPORT ANY BUGS TO WRF/CHEM HELP at                     *
 *                                                                   *
 *              wrfchemhelp.gsd@noaa.gov                             *
 *                                                                   *
 *********************************************************************
 WARNING: dust option 1 currently works only with the GOCART aerosol option.
 WARNING: sea salt option 1 currently works only with the GOCART aerosol option.
 INPUT LandUse = "USGS"
  LANDUSE TYPE = "USGS" FOUND 33  CATEGORIES 2  SEASONS WATER CATEGORY =  16  SNOW CATEGORY =  24
 INITIALIZE THREE Noah LSM RELATED TABLES
  LANDUSE TYPE = USGS FOUND 27  CATEGORIES
  INPUT SOIL TEXTURE CLASSIFICATION = STAS
  SOIL TEXTURE CLASSIFICATION = STAS FOUND 19  CATEGORIES
 *********************************************************************
 *             PROGRAM:WRF/CHEM V3.6 MODEL
 *                                                                   *
 *    PLEASE REPORT ANY BUGS TO WRF/CHEM HELP at                     *
 *                                                                   *
 *              wrfchemhelp.gsd@noaa.gov                             *
 *                                                                   *
 *********************************************************************
 WARNING: dust option 1 currently works only with the GOCART aerosol option.
 WARNING: sea salt option 1 currently works only with the GOCART aerosol option.
 INPUT LandUse = "USGS"
  LANDUSE TYPE = "USGS" FOUND 33  CATEGORIES 2  SEASONS WATER CATEGORY =  16  SNOW CATEGORY =  24
 INITIALIZE THREE Noah LSM RELATED TABLES
  LANDUSE TYPE = USGS FOUND 27  CATEGORIES
  INPUT SOIL TEXTURE CLASSIFICATION = STAS
  SOIL TEXTURE CLASSIFICATION = STAS FOUND 19  CATEGORIES
 *********************************************************************
 *             PROGRAM:WRF/CHEM V3.6 MODEL
 *                                                                   *
 *    PLEASE REPORT ANY BUGS TO WRF/CHEM HELP at                     *
 *                                                                   *
 *              wrfchemhelp.gsd@noaa.gov                             *
 *                                                                   *
 *********************************************************************
 WARNING: dust option 1 currently works only with the GOCART aerosol option.
 WARNING: sea salt option 1 currently works only with the GOCART aerosol option.
Timing for Writing wrfout_d01_2016-02-05_12:00:00 for domain        1:    1.24009 elapsed seconds
  mediation_integrate: med_read_wrf_chem_emissions: Open file wrfchemi_12z_d01
  HOURLY EMISSIONS UPDATE TIME         .0        .0
 mediation_integrate: med_read_wrf_chem_emissions: Read emissions for time 2016-02-05_12:00:00
 **WARNING** Time in input file not being checked **WARNING**
Timing for processing lateral boundary for domain        1:    2.94436 elapsed seconds
  Tile Strategy is not specified. Assuming 1D-Y
 WRF TILE   1 IS      1 IE     27 JS      1 JE     18
 WRF NUMBER OF TILES =   1
  photolysis_driver: called for domain  1
  *************************************
  Nesting domain
  ids,ide,jds,jde  1 307 1 241
  ims,ime,jms,jme  -4 42 -4 36
  ips,ipe,jps,jpe  1 31 1 24
  INTERMEDIATE domain
  ids,ide,jds,jde  124 231 35 120
  ims,ime,jms,jme  119 145 30 54
  ips,ipe,jps,jpe  122 135 33 44
  *************************************
 d02 2016-02-05_12:00:00  alloc_space_field: domain  3 ,  189959300  bytes allocated
 d02 2016-02-05_12:00:00  alloc_space_field: domain  3 ,  8502300  bytes allocated
 d02 2016-02-05_12:00:00 *** Initializing nest domain # 3 from an input file. ***
 d02 2016-02-05_12:00:00 med_initialdata_input: calling input_input
Timing for processing wrfinput file (stream 0) for domain        3:    5.26234 elapsed seconds
 INPUT LandUse = "USGS"
  LANDUSE TYPE = "USGS" FOUND 33  CATEGORIES 2  SEASONS WATER CATEGORY =  16  SNOW CATEGORY =  24
 INITIALIZE THREE Noah LSM RELATED TABLES
  LANDUSE TYPE = USGS FOUND 27  CATEGORIES
  INPUT SOIL TEXTURE CLASSIFICATION = STAS
  SOIL TEXTURE CLASSIFICATION = STAS FOUND 19  CATEGORIES
 *********************************************************************
 *             PROGRAM:WRF/CHEM V3.6 MODEL
 *                                                                   *
 *    PLEASE REPORT ANY BUGS TO WRF/CHEM HELP at                     *
 *                                                                   *
 *              wrfchemhelp.gsd@noaa.gov                             *
 *                                                                   *
 *********************************************************************
 WARNING: dust option 1 currently works only with the GOCART aerosol option.
 WARNING: sea salt option 1 currently works only with the GOCART aerosol option.
 INPUT LandUse = "USGS"
  LANDUSE TYPE = "USGS" FOUND 33  CATEGORIES 2  SEASONS WATER CATEGORY =  16  SNOW CATEGORY =  24
 INITIALIZE THREE Noah LSM RELATED TABLES
  LANDUSE TYPE = USGS FOUND 27  CATEGORIES
  INPUT SOIL TEXTURE CLASSIFICATION = STAS
  SOIL TEXTURE CLASSIFICATION = STAS FOUND 19  CATEGORIES
 *********************************************************************
 *             PROGRAM:WRF/CHEM V3.6 MODEL
 *                                                                   *
 *    PLEASE REPORT ANY BUGS TO WRF/CHEM HELP at                     *
 *                                                                   *
 *              wrfchemhelp.gsd@noaa.gov                             *
 *                                                                   *
 *********************************************************************
 WARNING: dust option 1 currently works only with the GOCART aerosol option.
 WARNING: sea salt option 1 currently works only with the GOCART aerosol option.
 INPUT LandUse = "USGS"
  LANDUSE TYPE = "USGS" FOUND 33  CATEGORIES 2  SEASONS WATER CATEGORY =  16  SNOW CATEGORY =  24
 INITIALIZE THREE Noah LSM RELATED TABLES
  LANDUSE TYPE = USGS FOUND 27  CATEGORIES
  INPUT SOIL TEXTURE CLASSIFICATION = STAS
  SOIL TEXTURE CLASSIFICATION = STAS FOUND 19  CATEGORIES
 *********************************************************************
 *             PROGRAM:WRF/CHEM V3.6 MODEL
 *                                                                   *
 *    PLEASE REPORT ANY BUGS TO WRF/CHEM HELP at                     *
 *                                                                   *
 *              wrfchemhelp.gsd@noaa.gov                             *
 *                                                                   *
 *********************************************************************
 WARNING: dust option 1 currently works only with the GOCART aerosol option.
 WARNING: sea salt option 1 currently works only with the GOCART aerosol option.
  *************************************
  Nesting domain
  ids,ide,jds,jde  1 217 1 388
  ims,ime,jms,jme  -4 33 -4 51
  ips,ipe,jps,jpe  1 22 1 39
  INTERMEDIATE domain
  ids,ide,jds,jde  225 302 83 217
  ims,ime,jms,jme  220 243 78 107
  ips,ipe,jps,jpe  223 233 81 97
  *************************************
 d02 2016-02-05_12:00:00  alloc_space_field: domain  4 ,  209313404  bytes allocated
 d02 2016-02-05_12:00:00  alloc_space_field: domain  4 ,  9069120  bytes allocated
 d02 2016-02-05_12:00:00 *** Initializing nest domain # 4 from an input file. ***
 d02 2016-02-05_12:00:00 med_initialdata_input: calling input_input
Timing for processing wrfinput file (stream 0) for domain        4:    6.39798 elapsed seconds
 INPUT LandUse = "USGS"
  LANDUSE TYPE = "USGS" FOUND 33  CATEGORIES 2  SEASONS WATER CATEGORY =  16  SNOW CATEGORY =  24
 INITIALIZE THREE Noah LSM RELATED TABLES
  LANDUSE TYPE = USGS FOUND 27  CATEGORIES
  INPUT SOIL TEXTURE CLASSIFICATION = STAS
  SOIL TEXTURE CLASSIFICATION = STAS FOUND 19  CATEGORIES
 *********************************************************************
 *             PROGRAM:WRF/CHEM V3.6 MODEL
 *                                                                   *
 *    PLEASE REPORT ANY BUGS TO WRF/CHEM HELP at                     *
 *                                                                   *
 *              wrfchemhelp.gsd@noaa.gov                             *
 *                                                                   *
 *********************************************************************
 WARNING: dust option 1 currently works only with the GOCART aerosol option.
 WARNING: sea salt option 1 currently works only with the GOCART aerosol option.
 INPUT LandUse = "USGS"
  LANDUSE TYPE = "USGS" FOUND 33  CATEGORIES 2  SEASONS WATER CATEGORY =  16  SNOW CATEGORY =  24
 INITIALIZE THREE Noah LSM RELATED TABLES
  LANDUSE TYPE = USGS FOUND 27  CATEGORIES
  INPUT SOIL TEXTURE CLASSIFICATION = STAS
  SOIL TEXTURE CLASSIFICATION = STAS FOUND 19  CATEGORIES
 *********************************************************************
 *             PROGRAM:WRF/CHEM V3.6 MODEL
 *                                                                   *
 *    PLEASE REPORT ANY BUGS TO WRF/CHEM HELP at                     *
 *                                                                   *
 *              wrfchemhelp.gsd@noaa.gov                             *
 *                                                                   *
 *********************************************************************
 WARNING: dust option 1 currently works only with the GOCART aerosol option.
 WARNING: sea salt option 1 currently works only with the GOCART aerosol option.
 INPUT LandUse = "USGS"
  LANDUSE TYPE = "USGS" FOUND 33  CATEGORIES 2  SEASONS WATER CATEGORY =  16  SNOW CATEGORY =  24
 INITIALIZE THREE Noah LSM RELATED TABLES
  LANDUSE TYPE = USGS FOUND 27  CATEGORIES
  INPUT SOIL TEXTURE CLASSIFICATION = STAS
  SOIL TEXTURE CLASSIFICATION = STAS FOUND 19  CATEGORIES
 *********************************************************************
 *             PROGRAM:WRF/CHEM V3.6 MODEL
 *                                                                   *
 *    PLEASE REPORT ANY BUGS TO WRF/CHEM HELP at                     *
 *                                                                   *
 *              wrfchemhelp.gsd@noaa.gov                             *
 *                                                                   *
 *********************************************************************
 WARNING: dust option 1 currently works only with the GOCART aerosol option.
 WARNING: sea salt option 1 currently works only with the GOCART aerosol option.
Timing for Writing wrfout_d02_2016-02-05_12:00:00 for domain        2:    2.08465 elapsed seconds
  mediation_integrate: med_read_wrf_chem_emissions: Open file wrfchemi_12z_d02
  HOURLY EMISSIONS UPDATE TIME         .0        .0
 mediation_integrate: med_read_wrf_chem_emissions: Read emissions for time 2016-02-05_12:00:00
 **WARNING** Time in input file not being checked **WARNING**
  Tile Strategy is not specified. Assuming 1D-Y
 WRF TILE   1 IS      1 IE     36 JS      1 JE     26
 WRF NUMBER OF TILES =   1
  photolysis_driver: called for domain  2
Timing for Writing wrfout_d03_2016-02-05_12:00:00 for domain        3:    1.61105 elapsed seconds
  mediation_integrate: med_read_wrf_chem_emissions: Open file wrfchemi_12z_d03
  HOURLY EMISSIONS UPDATE TIME         .0        .0
 mediation_integrate: med_read_wrf_chem_emissions: Read emissions for time 2016-02-05_12:00:00
 **WARNING** Time in input file not being checked **WARNING**
  Tile Strategy is not specified. Assuming 1D-Y
 WRF TILE   1 IS      1 IE     31 JS      1 JE     24
 WRF NUMBER OF TILES =   1
  photolysis_driver: called for domain  3
Timing for main: time 2016-02-05_12:00:13 on domain   3:    5.45113 elapsed seconds
Timing for main: time 2016-02-05_12:00:26 on domain   3:     .36080 elapsed seconds
Timing for main: time 2016-02-05_12:00:40 on domain   3:     .28888 elapsed seconds
Timing for Writing wrfout_d04_2016-02-05_12:00:00 for domain        4:    1.77715 elapsed seconds
  mediation_integrate: med_read_wrf_chem_emissions: Open file wrfchemi_12z_d04
  HOURLY EMISSIONS UPDATE TIME         .0        .0
 mediation_integrate: med_read_wrf_chem_emissions: Read emissions for time 2016-02-05_12:00:00
 **WARNING** Time in input file not being checked **WARNING**
  Tile Strategy is not specified. Assuming 1D-Y
 WRF TILE   1 IS      1 IE     22 JS      1 JE     39
 WRF NUMBER OF TILES =   1
  photolysis_driver: called for domain  4
Timing for main: time 2016-02-05_12:00:20 on domain   4:    5.92865 elapsed seconds
Timing for main: time 2016-02-05_12:00:40 on domain   4:     .27514 elapsed seconds
Timing for main: time 2016-02-05_12:00:40 on domain   2:   33.79862 elapsed seconds
Timing for main: time 2016-02-05_12:00:53 on domain   3:     .29072 elapsed seconds
Timing for main: time 2016-02-05_12:01:06 on domain   3:     .27269 elapsed seconds
Timing for main: time 2016-02-05_12:01:20 on domain   3:     .27273 elapsed seconds
Timing for main: time 2016-02-05_12:01:00 on domain   4:     .34373 elapsed seconds
Timing for main: time 2016-02-05_12:01:20 on domain   4:     .32327 elapsed seconds
Timing for main: time 2016-02-05_12:01:20 on domain   2:    2.37297 elapsed seconds
Timing for main: time 2016-02-05_12:01:33 on domain   3:     .33685 elapsed seconds
Timing for main: time 2016-02-05_12:01:46 on domain   3:     .33293 elapsed seconds
Timing for main: time 2016-02-05_12:02:00 on domain   3:     .28899 elapsed seconds
Timing for main: time 2016-02-05_12:01:40 on domain   4:     .36586 elapsed seconds
Timing for main: time 2016-02-05_12:02:00 on domain   4:     .33885 elapsed seconds
Timing for main: time 2016-02-05_12:02:00 on domain   2:    2.60423 elapsed seconds
Timing for main: time 2016-02-05_12:02:00 on domain   1:   55.35788 elapsed seconds
Timing for main: time 2016-02-05_12:02:13 on domain   3:     .28775 elapsed seconds
Timing for main: time 2016-02-05_12:02:26 on domain   3:     .27228 elapsed seconds
Timing for main: time 2016-02-05_12:02:40 on domain   3:     .27295 elapsed seconds
Timing for main: time 2016-02-05_12:02:20 on domain   4:     .34441 elapsed seconds
Timing for main: time 2016-02-05_12:02:40 on domain   4:     .32401 elapsed seconds
Timing for main: time 2016-02-05_12:02:40 on domain   2:    2.46572 elapsed seconds
Timing for main: time 2016-02-05_12:02:53 on domain   3:     .28898 elapsed seconds
Timing for main: time 2016-02-05_12:03:06 on domain   3:     .27258 elapsed seconds
Timing for main: time 2016-02-05_12:03:20 on domain   3:     .34886 elapsed seconds
Timing for main: time 2016-02-05_12:03:00 on domain   4:     .34360 elapsed seconds
Timing for main: time 2016-02-05_12:03:20 on domain   4:     .32433 elapsed seconds
Timing for main: time 2016-02-05_12:03:20 on domain   2:    2.51445 elapsed seconds
Timing for main: time 2016-02-05_12:03:33 on domain   3:     .28789 elapsed seconds
Timing for main: time 2016-02-05_12:03:46 on domain   3:     .27224 elapsed seconds
Timing for main: time 2016-02-05_12:04:00 on domain   3:     .27305 elapsed seconds
Timing for main: time 2016-02-05_12:03:40 on domain   4:     .34383 elapsed seconds
Timing for main: time 2016-02-05_12:04:00 on domain   4:     .32732 elapsed seconds
Timing for main: time 2016-02-05_12:04:00 on domain   2:    2.43905 elapsed seconds
Timing for main: time 2016-02-05_12:04:00 on domain   1:    7.87517 elapsed seconds
Timing for main: time 2016-02-05_12:04:13 on domain   3:     .28802 elapsed seconds
Timing for main: time 2016-02-05_12:04:26 on domain   3:     .27253 elapsed seconds
Timing for main: time 2016-02-05_12:04:40 on domain   3:     .27245 elapsed seconds
Timing for main: time 2016-02-05_12:04:20 on domain   4:     .34422 elapsed seconds
Timing for main: time 2016-02-05_12:04:40 on domain   4:     .32397 elapsed seconds
Timing for main: time 2016-02-05_12:04:40 on domain   2:    2.45470 elapsed seconds
Timing for main: time 2016-02-05_12:04:53 on domain   3:     .28975 elapsed seconds
Timing for main: time 2016-02-05_12:05:06 on domain   3:     .28350 elapsed seconds
Timing for main: time 2016-02-05_12:05:20 on domain   3:     .27326 elapsed seconds
Timing for main: time 2016-02-05_12:05:00 on domain   4:     .35868 elapsed seconds
Timing for main: time 2016-02-05_12:05:20 on domain   4:     .32452 elapsed seconds
Timing for main: time 2016-02-05_12:05:20 on domain   2:    2.47908 elapsed seconds
Timing for main: time 2016-02-05_12:05:33 on domain   3:     .28806 elapsed seconds
Timing for main: time 2016-02-05_12:05:46 on domain   3:     .27364 elapsed seconds
Timing for main: time 2016-02-05_12:06:00 on domain   3:     .27259 elapsed seconds
Timing for main: time 2016-02-05_12:05:40 on domain   4:     .34400 elapsed seconds
Timing for main: time 2016-02-05_12:06:00 on domain   4:     .32469 elapsed seconds
Timing for main: time 2016-02-05_12:06:00 on domain   2:    2.43748 elapsed seconds
Timing for main: time 2016-02-05_12:06:00 on domain   1:    7.85889 elapsed seconds
Timing for main: time 2016-02-05_12:06:13 on domain   3:     .28884 elapsed seconds
Timing for main: time 2016-02-05_12:06:26 on domain   3:     .27226 elapsed seconds
Timing for main: time 2016-02-05_12:06:40 on domain   3:     .27362 elapsed seconds
Timing for main: time 2016-02-05_12:06:20 on domain   4:     .34450 elapsed seconds
Timing for main: time 2016-02-05_12:06:40 on domain   4:     .32516 elapsed seconds
Timing for main: time 2016-02-05_12:06:40 on domain   2:    2.45675 elapsed seconds
Timing for main: time 2016-02-05_12:06:53 on domain   3:     .29056 elapsed seconds
Timing for main: time 2016-02-05_12:07:06 on domain   3:     .27279 elapsed seconds
Timing for main: time 2016-02-05_12:07:20 on domain   3:     .27259 elapsed seconds
Timing for main: time 2016-02-05_12:07:00 on domain   4:     .34502 elapsed seconds
Timing for main: time 2016-02-05_12:07:20 on domain   4:     .32453 elapsed seconds
Timing for main: time 2016-02-05_12:07:20 on domain   2:    2.44815 elapsed seconds
Timing for main: time 2016-02-05_12:07:33 on domain   3:     .28477 elapsed seconds
Timing for main: time 2016-02-05_12:07:46 on domain   3:     .27330 elapsed seconds
Timing for main: time 2016-02-05_12:08:00 on domain   3:     .27244 elapsed seconds
Timing for main: time 2016-02-05_12:07:40 on domain   4:     .34414 elapsed seconds
Timing for main: time 2016-02-05_12:08:00 on domain   4:     .32479 elapsed seconds
Timing for main: time 2016-02-05_12:08:00 on domain   2:    2.44649 elapsed seconds
Timing for main: time 2016-02-05_12:08:00 on domain   1:    7.82825 elapsed seconds
Timing for main: time 2016-02-05_12:08:13 on domain   3:     .28753 elapsed seconds
Timing for main: time 2016-02-05_12:08:26 on domain   3:     .27280 elapsed seconds
Timing for main: time 2016-02-05_12:08:40 on domain   3:     .27335 elapsed seconds
Timing for main: time 2016-02-05_12:08:20 on domain   4:     .34435 elapsed seconds
Timing for main: time 2016-02-05_12:08:40 on domain   4:     .32471 elapsed seconds
Timing for main: time 2016-02-05_12:08:40 on domain   2:    2.46093 elapsed seconds
Timing for main: time 2016-02-05_12:08:53 on domain   3:     .28782 elapsed seconds
Timing for main: time 2016-02-05_12:09:06 on domain   3:     .27277 elapsed seconds
Timing for main: time 2016-02-05_12:09:20 on domain   3:     .27253 elapsed seconds
Timing for main: time 2016-02-05_12:09:00 on domain   4:     .34573 elapsed seconds
Timing for main: time 2016-02-05_12:09:20 on domain   4:     .32592 elapsed seconds
Timing for main: time 2016-02-05_12:09:20 on domain   2:    2.43925 elapsed seconds
Timing for main: time 2016-02-05_12:09:33 on domain   3:     .28791 elapsed seconds
Timing for main: time 2016-02-05_12:09:46 on domain   3:     .27454 elapsed seconds
Timing for main: time 2016-02-05_12:10:00 on domain   3:     .27364 elapsed seconds
Timing for main: time 2016-02-05_12:09:40 on domain   4:     .34478 elapsed seconds
Timing for main: time 2016-02-05_12:10:00 on domain   4:     .34043 elapsed seconds
Timing for main: time 2016-02-05_12:10:00 on domain   2:    2.45497 elapsed seconds
Timing for main: time 2016-02-05_12:10:00 on domain   1:    7.83097 elapsed seconds
Timing for main: time 2016-02-05_12:10:13 on domain   3:     .30098 elapsed seconds
Timing for main: time 2016-02-05_12:10:26 on domain   3:     .27228 elapsed seconds
Timing for main: time 2016-02-05_12:10:40 on domain   3:     .27764 elapsed seconds
Timing for main: time 2016-02-05_12:10:20 on domain   4:     .34660 elapsed seconds
Timing for main: time 2016-02-05_12:10:40 on domain   4:     .32496 elapsed seconds
Timing for main: time 2016-02-05_12:10:40 on domain   2:    2.48866 elapsed seconds
Timing for main: time 2016-02-05_12:10:53 on domain   3:     .28755 elapsed seconds
Timing for main: time 2016-02-05_12:11:06 on domain   3:     .27355 elapsed seconds
Timing for main: time 2016-02-05_12:11:20 on domain   3:     .27343 elapsed seconds
Timing for main: time 2016-02-05_12:11:00 on domain   4:     .34498 elapsed seconds
Timing for main: time 2016-02-05_12:11:20 on domain   4:     .32546 elapsed seconds
Timing for main: time 2016-02-05_12:11:20 on domain   2:    2.43866 elapsed seconds
Timing for main: time 2016-02-05_12:11:33 on domain   3:     .28801 elapsed seconds
Timing for main: time 2016-02-05_12:11:46 on domain   3:     .27767 elapsed seconds
Timing for main: time 2016-02-05_12:12:00 on domain   3:     .27279 elapsed seconds
Timing for main: time 2016-02-05_12:11:40 on domain   4:     .34512 elapsed seconds
Timing for main: time 2016-02-05_12:12:00 on domain   4:     .32501 elapsed seconds
Timing for main: time 2016-02-05_12:12:00 on domain   2:    2.44244 elapsed seconds
Timing for main: time 2016-02-05_12:12:00 on domain   1:    7.85814 elapsed seconds
Timing for main: time 2016-02-05_12:12:13 on domain   3:     .29097 elapsed seconds
Timing for main: time 2016-02-05_12:12:26 on domain   3:     .27275 elapsed seconds
Timing for main: time 2016-02-05_12:12:40 on domain   3:     .27803 elapsed seconds
Timing for main: time 2016-02-05_12:12:20 on domain   4:     .34544 elapsed seconds
Timing for main: time 2016-02-05_12:12:40 on domain   4:     .41120 elapsed seconds
Timing for main: time 2016-02-05_12:12:40 on domain   2:    2.55107 elapsed seconds
Timing for main: time 2016-02-05_12:12:53 on domain   3:     .29300 elapsed seconds
Timing for main: time 2016-02-05_12:13:06 on domain   3:     .35714 elapsed seconds
Timing for main: time 2016-02-05_12:13:20 on domain   3:     .27290 elapsed seconds
Timing for main: time 2016-02-05_12:13:00 on domain   4:     .34558 elapsed seconds
Timing for main: time 2016-02-05_12:13:20 on domain   4:     .32641 elapsed seconds
Timing for main: time 2016-02-05_12:13:20 on domain   2:    2.52881 elapsed seconds
Timing for main: time 2016-02-05_12:13:33 on domain   3:     .28854 elapsed seconds
Timing for main: time 2016-02-05_12:13:46 on domain   3:     .27329 elapsed seconds
Timing for main: time 2016-02-05_12:14:00 on domain   3:     .27195 elapsed seconds
Timing for main: time 2016-02-05_12:13:40 on domain   4:     .34528 elapsed seconds
Timing for main: time 2016-02-05_12:14:00 on domain   4:     .32579 elapsed seconds
Timing for main: time 2016-02-05_12:14:00 on domain   2:    2.44206 elapsed seconds
Timing for main: time 2016-02-05_12:14:00 on domain   1:    7.99928 elapsed seconds
Timing for main: time 2016-02-05_12:14:13 on domain   3:     .28780 elapsed seconds
Timing for main: time 2016-02-05_12:14:26 on domain   3:     .27268 elapsed seconds
Timing for main: time 2016-02-05_12:14:40 on domain   3:     .27391 elapsed seconds
Timing for main: time 2016-02-05_12:14:20 on domain   4:     .34531 elapsed seconds
Timing for main: time 2016-02-05_12:14:40 on domain   4:     .32577 elapsed seconds
Timing for main: time 2016-02-05_12:14:40 on domain   2:    2.45500 elapsed seconds
Timing for main: time 2016-02-05_12:14:53 on domain   3:     .28863 elapsed seconds
Timing for main: time 2016-02-05_12:15:06 on domain   3:     .27279 elapsed seconds
Timing for main: time 2016-02-05_12:15:20 on domain   3:     .28506 elapsed seconds
Timing for main: time 2016-02-05_12:15:00 on domain   4:     .36002 elapsed seconds
Timing for main: time 2016-02-05_12:15:20 on domain   4:     .32541 elapsed seconds
Timing for main: time 2016-02-05_12:15:20 on domain   2:    2.48116 elapsed seconds
Timing for main: time 2016-02-05_12:15:33 on domain   3:     .28788 elapsed seconds
Timing for main: time 2016-02-05_12:15:46 on domain   3:     .27232 elapsed seconds
Timing for main: time 2016-02-05_12:16:00 on domain   3:     .27334 elapsed seconds
Timing for main: time 2016-02-05_12:15:40 on domain   4:     .34494 elapsed seconds
Timing for main: time 2016-02-05_12:16:00 on domain   4:     .32519 elapsed seconds
Timing for main: time 2016-02-05_12:16:00 on domain   2:    2.45278 elapsed seconds
Timing for main: time 2016-02-05_12:16:00 on domain   1:    7.86500 elapsed seconds
Timing for main: time 2016-02-05_12:16:13 on domain   3:     .28749 elapsed seconds
Timing for main: time 2016-02-05_12:16:26 on domain   3:     .27250 elapsed seconds
Timing for main: time 2016-02-05_12:16:40 on domain   3:     .27343 elapsed seconds
Timing for main: time 2016-02-05_12:16:20 on domain   4:     .34552 elapsed seconds
Timing for main: time 2016-02-05_12:16:40 on domain   4:     .32630 elapsed seconds
Timing for main: time 2016-02-05_12:16:40 on domain   2:    2.45754 elapsed seconds
Timing for main: time 2016-02-05_12:16:53 on domain   3:     .28848 elapsed seconds
Timing for main: time 2016-02-05_12:17:06 on domain   3:     .27225 elapsed seconds
Timing for main: time 2016-02-05_12:17:20 on domain   3:     .27326 elapsed seconds
Timing for main: time 2016-02-05_12:17:00 on domain   4:     .34641 elapsed seconds
Timing for main: time 2016-02-05_12:17:20 on domain   4:     .32587 elapsed seconds
Timing for main: time 2016-02-05_12:17:20 on domain   2:    2.44024 elapsed seconds
Timing for main: time 2016-02-05_12:17:33 on domain   3:     .28706 elapsed seconds
Timing for main: time 2016-02-05_12:17:46 on domain   3:     .27412 elapsed seconds
Timing for main: time 2016-02-05_12:18:00 on domain   3:     .27315 elapsed seconds
Timing for main: time 2016-02-05_12:17:40 on domain   4:     .34554 elapsed seconds
Timing for main: time 2016-02-05_12:18:00 on domain   4:     .32566 elapsed seconds
Timing for main: time 2016-02-05_12:18:00 on domain   2:    2.44094 elapsed seconds
Timing for main: time 2016-02-05_12:18:00 on domain   1:    7.82627 elapsed seconds
Timing for main: time 2016-02-05_12:18:13 on domain   3:     .28702 elapsed seconds
Timing for main: time 2016-02-05_12:18:26 on domain   3:     .27337 elapsed seconds
Timing for main: time 2016-02-05_12:18:40 on domain   3:     .27277 elapsed seconds
Timing for main: time 2016-02-05_12:18:20 on domain   4:     .34655 elapsed seconds
Timing for main: time 2016-02-05_12:18:40 on domain   4:     .39637 elapsed seconds
Timing for main: time 2016-02-05_12:18:40 on domain   2:    2.52865 elapsed seconds
Timing for main: time 2016-02-05_12:18:53 on domain   3:     .28765 elapsed seconds
Timing for main: time 2016-02-05_12:19:06 on domain   3:     .27264 elapsed seconds
Timing for main: time 2016-02-05_12:19:20 on domain   3:     .27304 elapsed seconds
Timing for main: time 2016-02-05_12:19:00 on domain   4:     .34828 elapsed seconds
Timing for main: time 2016-02-05_12:19:20 on domain   4:     .32592 elapsed seconds
Timing for main: time 2016-02-05_12:19:20 on domain   2:    2.44426 elapsed seconds
Timing for main: time 2016-02-05_12:19:33 on domain   3:     .28779 elapsed seconds
Timing for main: time 2016-02-05_12:19:46 on domain   3:     .27261 elapsed seconds
Timing for main: time 2016-02-05_12:20:00 on domain   3:     .27238 elapsed seconds
Timing for main: time 2016-02-05_12:19:40 on domain   4:     .34514 elapsed seconds
Timing for main: time 2016-02-05_12:20:00 on domain   4:     .34068 elapsed seconds
Timing for main: time 2016-02-05_12:20:00 on domain   2:    2.45337 elapsed seconds
Timing for main: time 2016-02-05_12:20:00 on domain   1:    7.90305 elapsed seconds
Timing for main: time 2016-02-05_12:20:13 on domain   3:     .28673 elapsed seconds
Timing for main: time 2016-02-05_12:20:26 on domain   3:     .28498 elapsed seconds
Timing for main: time 2016-02-05_12:20:40 on domain   3:     .27277 elapsed seconds
Timing for main: time 2016-02-05_12:20:20 on domain   4:     .34590 elapsed seconds
Timing for main: time 2016-02-05_12:20:40 on domain   4:     .32628 elapsed seconds
Timing for main: time 2016-02-05_12:20:40 on domain   2:    2.46943 elapsed seconds
Timing for main: time 2016-02-05_12:20:53 on domain   3:     .28717 elapsed seconds
Timing for main: time 2016-02-05_12:21:06 on domain   3:     .27308 elapsed seconds
Timing for main: time 2016-02-05_12:21:20 on domain   3:     .27327 elapsed seconds
Timing for main: time 2016-02-05_12:21:00 on domain   4:     .34574 elapsed seconds
Timing for main: time 2016-02-05_12:21:20 on domain   4:     .32694 elapsed seconds
Timing for main: time 2016-02-05_12:21:20 on domain   2:    2.45519 elapsed seconds
Timing for main: time 2016-02-05_12:21:33 on domain   3:     .28712 elapsed seconds
Timing for main: time 2016-02-05_12:21:46 on domain   3:     .27231 elapsed seconds
Timing for main: time 2016-02-05_12:22:00 on domain   3:     .27263 elapsed seconds
Timing for main: time 2016-02-05_12:21:40 on domain   4:     .34576 elapsed seconds
Timing for main: time 2016-02-05_12:22:00 on domain   4:     .32735 elapsed seconds
Timing for main: time 2016-02-05_12:22:00 on domain   2:    2.44000 elapsed seconds
Timing for main: time 2016-02-05_12:22:00 on domain   1:    7.84244 elapsed seconds
Timing for main: time 2016-02-05_12:22:13 on domain   3:     .28837 elapsed seconds
Timing for main: time 2016-02-05_12:22:26 on domain   3:     .27241 elapsed seconds
Timing for main: time 2016-02-05_12:22:40 on domain   3:     .27239 elapsed seconds
Timing for main: time 2016-02-05_12:22:20 on domain   4:     .34501 elapsed seconds
Timing for main: time 2016-02-05_12:22:40 on domain   4:     .32658 elapsed seconds
Timing for main: time 2016-02-05_12:22:40 on domain   2:    2.45905 elapsed seconds
Timing for main: time 2016-02-05_12:22:53 on domain   3:     .28700 elapsed seconds
Timing for main: time 2016-02-05_12:23:06 on domain   3:     .27243 elapsed seconds
Timing for main: time 2016-02-05_12:23:20 on domain   3:     .27233 elapsed seconds
Timing for main: time 2016-02-05_12:23:00 on domain   4:     .34586 elapsed seconds
Timing for main: time 2016-02-05_12:23:20 on domain   4:     .32610 elapsed seconds
Timing for main: time 2016-02-05_12:23:20 on domain   2:    2.43826 elapsed seconds
Timing for main: time 2016-02-05_12:23:33 on domain   3:     .28776 elapsed seconds
Timing for main: time 2016-02-05_12:23:46 on domain   3:     .27167 elapsed seconds
Timing for main: time 2016-02-05_12:24:00 on domain   3:     .27534 elapsed seconds
Timing for main: time 2016-02-05_12:23:40 on domain   4:     .34574 elapsed seconds
Timing for main: time 2016-02-05_12:24:00 on domain   4:     .32619 elapsed seconds
Timing for main: time 2016-02-05_12:24:00 on domain   2:    2.44692 elapsed seconds
Timing for main: time 2016-02-05_12:24:00 on domain   1:    7.83217 elapsed seconds
Timing for main: time 2016-02-05_12:24:13 on domain   3:     .28733 elapsed seconds
Timing for main: time 2016-02-05_12:24:26 on domain   3:     .27265 elapsed seconds
Timing for main: time 2016-02-05_12:24:40 on domain   3:     .27109 elapsed seconds
Timing for main: time 2016-02-05_12:24:20 on domain   4:     .34586 elapsed seconds
Timing for main: time 2016-02-05_12:24:40 on domain   4:     .32637 elapsed seconds
Timing for main: time 2016-02-05_12:24:40 on domain   2:    2.45772 elapsed seconds
Timing for main: time 2016-02-05_12:24:53 on domain   3:     .31007 elapsed seconds
Timing for main: time 2016-02-05_12:25:06 on domain   3:     .27211 elapsed seconds
Timing for main: time 2016-02-05_12:25:20 on domain   3:     .27436 elapsed seconds
Timing for main: time 2016-02-05_12:25:00 on domain   4:     .36086 elapsed seconds
Timing for main: time 2016-02-05_12:25:20 on domain   4:     .39413 elapsed seconds
Timing for main: time 2016-02-05_12:25:20 on domain   2:    2.54971 elapsed seconds
Timing for main: time 2016-02-05_12:25:33 on domain   3:     .29962 elapsed seconds
Timing for main: time 2016-02-05_12:25:46 on domain   3:     .27235 elapsed seconds
Timing for main: time 2016-02-05_12:26:00 on domain   3:     .27288 elapsed seconds
Timing for main: time 2016-02-05_12:25:40 on domain   4:     .34687 elapsed seconds
Timing for main: time 2016-02-05_12:26:00 on domain   4:     .32616 elapsed seconds
Timing for main: time 2016-02-05_12:26:00 on domain   2:    2.45315 elapsed seconds
Timing for main: time 2016-02-05_12:26:00 on domain   1:    7.93636 elapsed seconds
Timing for main: time 2016-02-05_12:26:13 on domain   3:     .28867 elapsed seconds
Timing for main: time 2016-02-05_12:26:26 on domain   3:     .27340 elapsed seconds
Timing for main: time 2016-02-05_12:26:40 on domain   3:     .27192 elapsed seconds
Timing for main: time 2016-02-05_12:26:20 on domain   4:     .34541 elapsed seconds
Timing for main: time 2016-02-05_12:26:40 on domain   4:     .32597 elapsed seconds
Timing for main: time 2016-02-05_12:26:40 on domain   2:    2.47477 elapsed seconds
Timing for main: time 2016-02-05_12:26:53 on domain   3:     .28741 elapsed seconds
Timing for main: time 2016-02-05_12:27:06 on domain   3:     .27232 elapsed seconds
Timing for main: time 2016-02-05_12:27:20 on domain   3:     .27250 elapsed seconds
Timing for main: time 2016-02-05_12:27:00 on domain   4:     .34606 elapsed seconds
Timing for main: time 2016-02-05_12:27:20 on domain   4:     .32607 elapsed seconds
Timing for main: time 2016-02-05_12:27:20 on domain   2:    2.44191 elapsed seconds
Timing for main: time 2016-02-05_12:27:33 on domain   3:     .28702 elapsed seconds
Timing for main: time 2016-02-05_12:27:46 on domain   3:     .27255 elapsed seconds
Timing for main: time 2016-02-05_12:28:00 on domain   3:     .27773 elapsed seconds
Timing for main: time 2016-02-05_12:27:40 on domain   4:     .34576 elapsed seconds
Timing for main: time 2016-02-05_12:28:00 on domain   4:     .32614 elapsed seconds
Timing for main: time 2016-02-05_12:28:00 on domain   2:    2.44424 elapsed seconds
Timing for main: time 2016-02-05_12:28:00 on domain   1:    7.83636 elapsed seconds
  photolysis_driver: called for domain  1
Timing for main: time 2016-02-05_12:28:13 on domain   3:     .28742 elapsed seconds
Timing for main: time 2016-02-05_12:28:26 on domain   3:     .27231 elapsed seconds
Timing for main: time 2016-02-05_12:28:40 on domain   3:     .27247 elapsed seconds
Timing for main: time 2016-02-05_12:28:20 on domain   4:     .34581 elapsed seconds
Timing for main: time 2016-02-05_12:28:40 on domain   4:     .32780 elapsed seconds
Timing for main: time 2016-02-05_12:28:40 on domain   2:    2.46003 elapsed seconds
Timing for main: time 2016-02-05_12:28:53 on domain   3:     .28715 elapsed seconds
Timing for main: time 2016-02-05_12:29:06 on domain   3:     .27256 elapsed seconds
Timing for main: time 2016-02-05_12:29:20 on domain   3:     .27234 elapsed seconds
Timing for main: time 2016-02-05_12:29:00 on domain   4:     .34538 elapsed seconds
Timing for main: time 2016-02-05_12:29:20 on domain   4:     .32683 elapsed seconds
Timing for main: time 2016-02-05_12:29:20 on domain   2:    2.45990 elapsed seconds
  photolysis_driver: called for domain  2
Timing for main: time 2016-02-05_12:29:33 on domain   3:     .28719 elapsed seconds
Timing for main: time 2016-02-05_12:29:46 on domain   3:     .27325 elapsed seconds
  photolysis_driver: called for domain  3
Timing for main: time 2016-02-05_12:30:00 on domain   3:    1.65359 elapsed seconds
Timing for main: time 2016-02-05_12:29:40 on domain   4:     .34655 elapsed seconds
  photolysis_driver: called for domain  4
Timing for main: time 2016-02-05_12:30:00 on domain   4:    1.97441 elapsed seconds
Timing for main: time 2016-02-05_12:30:00 on domain   2:    7.19086 elapsed seconds
Timing for main: time 2016-02-05_12:30:00 on domain   1:   13.63270 elapsed seconds
Timing for main: time 2016-02-05_12:30:13 on domain   3:     .55808 elapsed seconds
Timing for main: time 2016-02-05_12:30:26 on domain   3:     .26905 elapsed seconds
Timing for main: time 2016-02-05_12:30:40 on domain   3:     .28559 elapsed seconds
Timing for main: time 2016-02-05_12:30:20 on domain   4:     .66060 elapsed seconds
Timing for main: time 2016-02-05_12:30:40 on domain   4:     .32537 elapsed seconds
Timing for main: time 2016-02-05_12:30:40 on domain   2:    3.39463 elapsed seconds
Timing for main: time 2016-02-05_12:30:53 on domain   3:     .28745 elapsed seconds
Timing for main: time 2016-02-05_12:31:06 on domain   3:     .27089 elapsed seconds
Timing for main: time 2016-02-05_12:31:20 on domain   3:     .27180 elapsed seconds
Timing for main: time 2016-02-05_12:31:00 on domain   4:     .34061 elapsed seconds
Timing for main: time 2016-02-05_12:31:20 on domain   4:     .32448 elapsed seconds
Timing for main: time 2016-02-05_12:31:20 on domain   2:    2.43023 elapsed seconds
Timing for main: time 2016-02-05_12:31:33 on domain   3:     .31827 elapsed seconds
Timing for main: time 2016-02-05_12:31:46 on domain   3:     .33321 elapsed seconds
Timing for main: time 2016-02-05_12:32:00 on domain   3:     .27420 elapsed seconds
Timing for main: time 2016-02-05_12:31:40 on domain   4:     .34368 elapsed seconds
Timing for main: time 2016-02-05_12:32:00 on domain   4:     .32370 elapsed seconds
Timing for main: time 2016-02-05_12:32:00 on domain   2:    2.54254 elapsed seconds
Timing for main: time 2016-02-05_12:32:00 on domain   1:    9.07834 elapsed seconds
Timing for main: time 2016-02-05_12:32:13 on domain   3:     .28697 elapsed seconds
Timing for main: time 2016-02-05_12:32:26 on domain   3:     .27057 elapsed seconds
Timing for main: time 2016-02-05_12:32:40 on domain   3:     .27104 elapsed seconds
Timing for main: time 2016-02-05_12:32:20 on domain   4:     .34353 elapsed seconds
Timing for main: time 2016-02-05_12:32:40 on domain   4:     .32886 elapsed seconds
Timing for main: time 2016-02-05_12:32:40 on domain   2:    2.45242 elapsed seconds
Timing for main: time 2016-02-05_12:32:53 on domain   3:     .28554 elapsed seconds
Timing for main: time 2016-02-05_12:33:06 on domain   3:     .27241 elapsed seconds
Timing for main: time 2016-02-05_12:33:20 on domain   3:     .33548 elapsed seconds
Timing for main: time 2016-02-05_12:33:00 on domain   4:     .34489 elapsed seconds
Timing for main: time 2016-02-05_12:33:20 on domain   4:     .32441 elapsed seconds
Timing for main: time 2016-02-05_12:33:20 on domain   2:    2.54760 elapsed seconds
Timing for main: time 2016-02-05_12:33:33 on domain   3:     .29058 elapsed seconds
Timing for main: time 2016-02-05_12:33:46 on domain   3:     .26988 elapsed seconds
Timing for main: time 2016-02-05_12:34:00 on domain   3:     .27068 elapsed seconds
Timing for main: time 2016-02-05_12:33:40 on domain   4:     .34453 elapsed seconds
Timing for main: time 2016-02-05_12:34:00 on domain   4:     .32393 elapsed seconds
Timing for main: time 2016-02-05_12:34:00 on domain   2:    2.43250 elapsed seconds
Timing for main: time 2016-02-05_12:34:00 on domain   1:    7.90781 elapsed seconds
Timing for main: time 2016-02-05_12:34:13 on domain   3:     .28508 elapsed seconds
Timing for main: time 2016-02-05_12:34:26 on domain   3:     .27267 elapsed seconds
Timing for main: time 2016-02-05_12:34:40 on domain   3:     .27027 elapsed seconds
Timing for main: time 2016-02-05_12:34:20 on domain   4:     .34415 elapsed seconds
Timing for main: time 2016-02-05_12:34:40 on domain   4:     .32468 elapsed seconds
Timing for main: time 2016-02-05_12:34:40 on domain   2:    2.44999 elapsed seconds
Timing for main: time 2016-02-05_12:34:53 on domain   3:     .28585 elapsed seconds
Timing for main: time 2016-02-05_12:35:06 on domain   3:     .27091 elapsed seconds
Timing for main: time 2016-02-05_12:35:20 on domain   3:     .27092 elapsed seconds
Timing for main: time 2016-02-05_12:35:00 on domain   4:     .35798 elapsed seconds
Timing for main: time 2016-02-05_12:35:20 on domain   4:     .32443 elapsed seconds
Timing for main: time 2016-02-05_12:35:20 on domain   2:    2.44234 elapsed seconds
Timing for main: time 2016-02-05_12:35:33 on domain   3:     .29694 elapsed seconds
Timing for main: time 2016-02-05_12:35:46 on domain   3:     .28546 elapsed seconds
Timing for main: time 2016-02-05_12:36:00 on domain   3:     .27054 elapsed seconds
Timing for main: time 2016-02-05_12:35:40 on domain   4:     .34477 elapsed seconds
Timing for main: time 2016-02-05_12:36:00 on domain   4:     .32410 elapsed seconds
Timing for main: time 2016-02-05_12:36:00 on domain   2:    2.45540 elapsed seconds
Timing for main: time 2016-02-05_12:36:00 on domain   1:    7.83485 elapsed seconds
Timing for main: time 2016-02-05_12:36:13 on domain   3:     .28231 elapsed seconds
Timing for main: time 2016-02-05_12:36:26 on domain   3:     .27051 elapsed seconds
Timing for main: time 2016-02-05_12:36:40 on domain   3:     .27071 elapsed seconds
Timing for main: time 2016-02-05_12:36:20 on domain   4:     .34274 elapsed seconds
Timing for main: time 2016-02-05_12:36:40 on domain   4:     .32423 elapsed seconds
Timing for main: time 2016-02-05_12:36:40 on domain   2:    2.45778 elapsed seconds
Timing for main: time 2016-02-05_12:36:53 on domain   3:     .28518 elapsed seconds
Timing for main: time 2016-02-05_12:37:06 on domain   3:     .27031 elapsed seconds
Timing for main: time 2016-02-05_12:37:20 on domain   3:     .27069 elapsed seconds
Timing for main: time 2016-02-05_12:37:00 on domain   4:     .34555 elapsed seconds
Timing for main: time 2016-02-05_12:37:20 on domain   4:     .32349 elapsed seconds
Timing for main: time 2016-02-05_12:37:20 on domain   2:    2.44614 elapsed seconds
Timing for main: time 2016-02-05_12:37:33 on domain   3:     .28670 elapsed seconds
Timing for main: time 2016-02-05_12:37:46 on domain   3:     .27076 elapsed seconds
Timing for main: time 2016-02-05_12:38:00 on domain   3:     .27011 elapsed seconds
Timing for main: time 2016-02-05_12:37:40 on domain   4:     .34309 elapsed seconds
Timing for main: time 2016-02-05_12:38:00 on domain   4:     .32401 elapsed seconds
Timing for main: time 2016-02-05_12:38:00 on domain   2:    2.42856 elapsed seconds
Timing for main: time 2016-02-05_12:38:00 on domain   1:    7.80787 elapsed seconds
Timing for main: time 2016-02-05_12:38:13 on domain   3:     .28570 elapsed seconds
Timing for main: time 2016-02-05_12:38:26 on domain   3:     .27076 elapsed seconds
Timing for main: time 2016-02-05_12:38:40 on domain   3:     .27130 elapsed seconds
Timing for main: time 2016-02-05_12:38:20 on domain   4:     .34277 elapsed seconds
Timing for main: time 2016-02-05_12:38:40 on domain   4:     .32353 elapsed seconds
Timing for main: time 2016-02-05_12:38:40 on domain   2:    2.44673 elapsed seconds
Timing for main: time 2016-02-05_12:38:53 on domain   3:     .28575 elapsed seconds
Timing for main: time 2016-02-05_12:39:06 on domain   3:     .27090 elapsed seconds
Timing for main: time 2016-02-05_12:39:20 on domain   3:     .27006 elapsed seconds
Timing for main: time 2016-02-05_12:39:00 on domain   4:     .34720 elapsed seconds
Timing for main: time 2016-02-05_12:39:20 on domain   4:     .32703 elapsed seconds
Timing for main: time 2016-02-05_12:39:20 on domain   2:    2.43653 elapsed seconds
Timing for main: time 2016-02-05_12:39:33 on domain   3:     .28499 elapsed seconds
Timing for main: time 2016-02-05_12:39:46 on domain   3:     .27059 elapsed seconds
Timing for main: time 2016-02-05_12:40:00 on domain   3:     .27121 elapsed seconds
Timing for main: time 2016-02-05_12:39:40 on domain   4:     .34485 elapsed seconds
Timing for main: time 2016-02-05_12:40:00 on domain   4:     .33859 elapsed seconds
Timing for main: time 2016-02-05_12:40:00 on domain   2:    2.44546 elapsed seconds
Timing for main: time 2016-02-05_12:40:00 on domain   1:    7.80479 elapsed seconds
Timing for main: time 2016-02-05_12:40:13 on domain   3:     .28541 elapsed seconds
Timing for main: time 2016-02-05_12:40:26 on domain   3:     .27609 elapsed seconds
Timing for main: time 2016-02-05_12:40:40 on domain   3:     .27062 elapsed seconds
Timing for main: time 2016-02-05_12:40:20 on domain   4:     .34330 elapsed seconds
Timing for main: time 2016-02-05_12:40:40 on domain   4:     .32516 elapsed seconds
Timing for main: time 2016-02-05_12:40:40 on domain   2:    2.45435 elapsed seconds
Timing for main: time 2016-02-05_12:40:53 on domain   3:     .29828 elapsed seconds
Timing for main: time 2016-02-05_12:41:06 on domain   3:     .27164 elapsed seconds
Timing for main: time 2016-02-05_12:41:20 on domain   3:     .27051 elapsed seconds
Timing for main: time 2016-02-05_12:41:00 on domain   4:     .34607 elapsed seconds
Timing for main: time 2016-02-05_12:41:20 on domain   4:     .32574 elapsed seconds
Timing for main: time 2016-02-05_12:41:20 on domain   2:    2.44889 elapsed seconds
Timing for main: time 2016-02-05_12:41:33 on domain   3:     .28615 elapsed seconds
Timing for main: time 2016-02-05_12:41:46 on domain   3:     .27048 elapsed seconds
Timing for main: time 2016-02-05_12:42:00 on domain   3:     .27078 elapsed seconds
Timing for main: time 2016-02-05_12:41:40 on domain   4:     .34392 elapsed seconds
Timing for main: time 2016-02-05_12:42:00 on domain   4:     .32396 elapsed seconds
Timing for main: time 2016-02-05_12:42:00 on domain   2:    2.42946 elapsed seconds
Timing for main: time 2016-02-05_12:42:00 on domain   1:    7.81906 elapsed seconds
Timing for main: time 2016-02-05_12:42:13 on domain   3:     .28591 elapsed seconds
Timing for main: time 2016-02-05_12:42:26 on domain   3:     .27361 elapsed seconds
Timing for main: time 2016-02-05_12:42:40 on domain   3:     .27083 elapsed seconds
Timing for main: time 2016-02-05_12:42:20 on domain   4:     .34397 elapsed seconds
Timing for main: time 2016-02-05_12:42:40 on domain   4:     .32044 elapsed seconds
Timing for main: time 2016-02-05_12:42:40 on domain   2:    2.46453 elapsed seconds
Timing for main: time 2016-02-05_12:42:53 on domain   3:     .28519 elapsed seconds
Timing for main: time 2016-02-05_12:43:06 on domain   3:     .34145 elapsed seconds
Timing for main: time 2016-02-05_12:43:20 on domain   3:     .30564 elapsed seconds
Timing for main: time 2016-02-05_12:43:00 on domain   4:     .34489 elapsed seconds
Timing for main: time 2016-02-05_12:43:20 on domain   4:     .32460 elapsed seconds
Timing for main: time 2016-02-05_12:43:20 on domain   2:    2.61967 elapsed seconds
Timing for main: time 2016-02-05_12:43:33 on domain   3:     .28605 elapsed seconds
Timing for main: time 2016-02-05_12:43:46 on domain   3:     .27104 elapsed seconds
Timing for main: time 2016-02-05_12:44:00 on domain   3:     .27150 elapsed seconds
Timing for main: time 2016-02-05_12:43:40 on domain   4:     .34617 elapsed seconds
Timing for main: time 2016-02-05_12:44:00 on domain   4:     .32403 elapsed seconds
Timing for main: time 2016-02-05_12:44:00 on domain   2:    2.43408 elapsed seconds
Timing for main: time 2016-02-05_12:44:00 on domain   1:    7.99406 elapsed seconds
Timing for main: time 2016-02-05_12:44:13 on domain   3:     .28514 elapsed seconds
Timing for main: time 2016-02-05_12:44:26 on domain   3:     .27041 elapsed seconds
Timing for main: time 2016-02-05_12:44:40 on domain   3:     .27156 elapsed seconds
Timing for main: time 2016-02-05_12:44:20 on domain   4:     .34382 elapsed seconds
Timing for main: time 2016-02-05_12:44:40 on domain   4:     .32420 elapsed seconds
Timing for main: time 2016-02-05_12:44:40 on domain   2:    2.44980 elapsed seconds
Timing for main: time 2016-02-05_12:44:53 on domain   3:     .28502 elapsed seconds
Timing for main: time 2016-02-05_12:45:06 on domain   3:     .27093 elapsed seconds
Timing for main: time 2016-02-05_12:45:20 on domain   3:     .27001 elapsed seconds
Timing for main: time 2016-02-05_12:45:00 on domain   4:     .35844 elapsed seconds
Timing for main: time 2016-02-05_12:45:20 on domain   4:     .32413 elapsed seconds
Timing for main: time 2016-02-05_12:45:20 on domain   2:    2.44457 elapsed seconds
Timing for main: time 2016-02-05_12:45:33 on domain   3:     .28668 elapsed seconds
Timing for main: time 2016-02-05_12:45:46 on domain   3:     .27035 elapsed seconds
Timing for main: time 2016-02-05_12:46:00 on domain   3:     .28348 elapsed seconds
Timing for main: time 2016-02-05_12:45:40 on domain   4:     .34385 elapsed seconds
Timing for main: time 2016-02-05_12:46:00 on domain   4:     .32370 elapsed seconds
Timing for main: time 2016-02-05_12:46:00 on domain   2:    2.44385 elapsed seconds
Timing for main: time 2016-02-05_12:46:00 on domain   1:    7.81382 elapsed seconds
Timing for main: time 2016-02-05_12:46:13 on domain   3:     .28455 elapsed seconds
Timing for main: time 2016-02-05_12:46:26 on domain   3:     .27255 elapsed seconds
Timing for main: time 2016-02-05_12:46:40 on domain   3:     .27002 elapsed seconds
Timing for main: time 2016-02-05_12:46:20 on domain   4:     .34352 elapsed seconds
Timing for main: time 2016-02-05_12:46:40 on domain   4:     .32452 elapsed seconds
Timing for main: time 2016-02-05_12:46:40 on domain   2:    2.44946 elapsed seconds
Timing for main: time 2016-02-05_12:46:53 on domain   3:     .28573 elapsed seconds
Timing for main: time 2016-02-05_12:47:06 on domain   3:     .27294 elapsed seconds
Timing for main: time 2016-02-05_12:47:20 on domain   3:     .27049 elapsed seconds
Timing for main: time 2016-02-05_12:47:00 on domain   4:     .34336 elapsed seconds
Timing for main: time 2016-02-05_12:47:20 on domain   4:     .32462 elapsed seconds
Timing for main: time 2016-02-05_12:47:20 on domain   2:    2.43219 elapsed seconds
Timing for main: time 2016-02-05_12:47:33 on domain   3:     .28523 elapsed seconds
Timing for main: time 2016-02-05_12:47:46 on domain   3:     .27111 elapsed seconds
Timing for main: time 2016-02-05_12:48:00 on domain   3:     .27053 elapsed seconds
Timing for main: time 2016-02-05_12:47:40 on domain   4:     .34394 elapsed seconds
Timing for main: time 2016-02-05_12:48:00 on domain   4:     .32444 elapsed seconds
Timing for main: time 2016-02-05_12:48:00 on domain   2:    2.44627 elapsed seconds
Timing for main: time 2016-02-05_12:48:00 on domain   1:    7.81461 elapsed seconds
Timing for main: time 2016-02-05_12:48:13 on domain   3:     .28501 elapsed seconds
Timing for main: time 2016-02-05_12:48:26 on domain   3:     .26972 elapsed seconds
Timing for main: time 2016-02-05_12:48:40 on domain   3:     .27045 elapsed seconds
Timing for main: time 2016-02-05_12:48:20 on domain   4:     .34354 elapsed seconds
Timing for main: time 2016-02-05_12:48:40 on domain   4:     .32581 elapsed seconds
Timing for main: time 2016-02-05_12:48:40 on domain   2:    2.44820 elapsed seconds
Timing for main: time 2016-02-05_12:48:53 on domain   3:     .28539 elapsed seconds
Timing for main: time 2016-02-05_12:49:06 on domain   3:     .27063 elapsed seconds
Timing for main: time 2016-02-05_12:49:20 on domain   3:     .26979 elapsed seconds
Timing for main: time 2016-02-05_12:49:00 on domain   4:     .34324 elapsed seconds
Timing for main: time 2016-02-05_12:49:20 on domain   4:     .32502 elapsed seconds
Timing for main: time 2016-02-05_12:49:20 on domain   2:    2.42897 elapsed seconds
Timing for main: time 2016-02-05_12:49:33 on domain   3:     .28673 elapsed seconds
Timing for main: time 2016-02-05_12:49:46 on domain   3:     .27033 elapsed seconds
Timing for main: time 2016-02-05_12:50:00 on domain   3:     .27325 elapsed seconds
Timing for main: time 2016-02-05_12:49:40 on domain   4:     .34402 elapsed seconds
Timing for main: time 2016-02-05_12:50:00 on domain   4:     .33883 elapsed seconds
Timing for main: time 2016-02-05_12:50:00 on domain   2:    2.44881 elapsed seconds
Timing for main: time 2016-02-05_12:50:00 on domain   1:    7.80490 elapsed seconds
Timing for main: time 2016-02-05_12:50:13 on domain   3:     .28515 elapsed seconds
Timing for main: time 2016-02-05_12:50:26 on domain   3:     .27053 elapsed seconds
Timing for main: time 2016-02-05_12:50:40 on domain   3:     .27026 elapsed seconds
Timing for main: time 2016-02-05_12:50:20 on domain   4:     .34384 elapsed seconds
Timing for main: time 2016-02-05_12:50:40 on domain   4:     .32455 elapsed seconds
Timing for main: time 2016-02-05_12:50:40 on domain   2:    2.45269 elapsed seconds
Timing for main: time 2016-02-05_12:50:53 on domain   3:     .28661 elapsed seconds
Timing for main: time 2016-02-05_12:51:06 on domain   3:     .28227 elapsed seconds
Timing for main: time 2016-02-05_12:51:20 on domain   3:     .27018 elapsed seconds
Timing for main: time 2016-02-05_12:51:00 on domain   4:     .34525 elapsed seconds
Timing for main: time 2016-02-05_12:51:20 on domain   4:     .32481 elapsed seconds
Timing for main: time 2016-02-05_12:51:20 on domain   2:    2.44381 elapsed seconds
Timing for main: time 2016-02-05_12:51:33 on domain   3:     .28541 elapsed seconds
Timing for main: time 2016-02-05_12:51:46 on domain   3:     .27009 elapsed seconds
Timing for main: time 2016-02-05_12:52:00 on domain   3:     .27009 elapsed seconds
Timing for main: time 2016-02-05_12:51:40 on domain   4:     .34371 elapsed seconds
Timing for main: time 2016-02-05_12:52:00 on domain   4:     .32527 elapsed seconds
Timing for main: time 2016-02-05_12:52:00 on domain   2:    2.42846 elapsed seconds
Timing for main: time 2016-02-05_12:52:00 on domain   1:    7.80181 elapsed seconds
Timing for main: time 2016-02-05_12:52:13 on domain   3:     .28491 elapsed seconds
Timing for main: time 2016-02-05_12:52:26 on domain   3:     .27002 elapsed seconds
Timing for main: time 2016-02-05_12:52:40 on domain   3:     .26977 elapsed seconds
Timing for main: time 2016-02-05_12:52:20 on domain   4:     .34543 elapsed seconds
Timing for main: time 2016-02-05_12:52:40 on domain   4:     .32432 elapsed seconds
Timing for main: time 2016-02-05_12:52:40 on domain   2:    2.44722 elapsed seconds
Timing for main: time 2016-02-05_12:52:53 on domain   3:     .28648 elapsed seconds
Timing for main: time 2016-02-05_12:53:06 on domain   3:     .27118 elapsed seconds
Timing for main: time 2016-02-05_12:53:20 on domain   3:     .26968 elapsed seconds
Timing for main: time 2016-02-05_12:53:00 on domain   4:     .34418 elapsed seconds
Timing for main: time 2016-02-05_12:53:20 on domain   4:     .32408 elapsed seconds
Timing for main: time 2016-02-05_12:53:20 on domain   2:    2.44547 elapsed seconds
Timing for main: time 2016-02-05_12:53:33 on domain   3:     .28574 elapsed seconds
Timing for main: time 2016-02-05_12:53:46 on domain   3:     .27025 elapsed seconds
Timing for main: time 2016-02-05_12:54:00 on domain   3:     .27051 elapsed seconds
Timing for main: time 2016-02-05_12:53:40 on domain   4:     .34365 elapsed seconds
Timing for main: time 2016-02-05_12:54:00 on domain   4:     .32728 elapsed seconds
Timing for main: time 2016-02-05_12:54:00 on domain   2:    2.43150 elapsed seconds
Timing for main: time 2016-02-05_12:54:00 on domain   1:    7.81140 elapsed seconds
Timing for main: time 2016-02-05_12:54:13 on domain   3:     .28592 elapsed seconds
Timing for main: time 2016-02-05_12:54:26 on domain   3:     .27030 elapsed seconds
Timing for main: time 2016-02-05_12:54:40 on domain   3:     .27016 elapsed seconds
Timing for main: time 2016-02-05_12:54:20 on domain   4:     .34413 elapsed seconds
Timing for main: time 2016-02-05_12:54:40 on domain   4:     .32524 elapsed seconds
Timing for main: time 2016-02-05_12:54:40 on domain   2:    2.44946 elapsed seconds
Timing for main: time 2016-02-05_12:54:53 on domain   3:     .28528 elapsed seconds
Timing for main: time 2016-02-05_12:55:06 on domain   3:     .26949 elapsed seconds
Timing for main: time 2016-02-05_12:55:20 on domain   3:     .27155 elapsed seconds
Timing for main: time 2016-02-05_12:55:00 on domain   4:     .35855 elapsed seconds
Timing for main: time 2016-02-05_12:55:20 on domain   4:     .32506 elapsed seconds
Timing for main: time 2016-02-05_12:55:20 on domain   2:    2.44751 elapsed seconds
Timing for main: time 2016-02-05_12:55:33 on domain   3:     .28640 elapsed seconds
Timing for main: time 2016-02-05_12:55:46 on domain   3:     .27091 elapsed seconds
Timing for main: time 2016-02-05_12:56:00 on domain   3:     .27724 elapsed seconds
Timing for main: time 2016-02-05_12:55:40 on domain   4:     .34460 elapsed seconds
Timing for main: time 2016-02-05_12:56:00 on domain   4:     .32441 elapsed seconds
Timing for main: time 2016-02-05_12:56:00 on domain   2:    2.43702 elapsed seconds
Timing for main: time 2016-02-05_12:56:00 on domain   1:    7.80955 elapsed seconds
Timing for main: time 2016-02-05_12:56:13 on domain   3:     .29848 elapsed seconds
Timing for main: time 2016-02-05_12:56:26 on domain   3:     .27039 elapsed seconds
Timing for main: time 2016-02-05_12:56:40 on domain   3:     .27134 elapsed seconds
Timing for main: time 2016-02-05_12:56:20 on domain   4:     .34378 elapsed seconds
Timing for main: time 2016-02-05_12:56:40 on domain   4:     .32468 elapsed seconds
Timing for main: time 2016-02-05_12:56:40 on domain   2:    2.46235 elapsed seconds
Timing for main: time 2016-02-05_12:56:53 on domain   3:     .28590 elapsed seconds
Timing for main: time 2016-02-05_12:57:06 on domain   3:     .26979 elapsed seconds
Timing for main: time 2016-02-05_12:57:20 on domain   3:     .27057 elapsed seconds
Timing for main: time 2016-02-05_12:57:00 on domain   4:     .34372 elapsed seconds
Timing for main: time 2016-02-05_12:57:20 on domain   4:     .32411 elapsed seconds
Timing for main: time 2016-02-05_12:57:20 on domain   2:    2.42872 elapsed seconds
Timing for main: time 2016-02-05_12:57:33 on domain   3:     .28513 elapsed seconds
Timing for main: time 2016-02-05_12:57:46 on domain   3:     .27052 elapsed seconds
Timing for main: time 2016-02-05_12:58:00 on domain   3:     .27290 elapsed seconds
Timing for main: time 2016-02-05_12:57:40 on domain   4:     .34548 elapsed seconds
Timing for main: time 2016-02-05_12:58:00 on domain   4:     .32461 elapsed seconds
Timing for main: time 2016-02-05_12:58:00 on domain   2:    2.43319 elapsed seconds
Timing for main: time 2016-02-05_12:58:00 on domain   1:    7.79971 elapsed seconds
  photolysis_driver: called for domain  1
Timing for main: time 2016-02-05_12:58:13 on domain   3:     .28585 elapsed seconds
Timing for main: time 2016-02-05_12:58:26 on domain   3:     .27238 elapsed seconds
Timing for main: time 2016-02-05_12:58:40 on domain   3:     .27108 elapsed seconds
Timing for main: time 2016-02-05_12:58:20 on domain   4:     .34422 elapsed seconds
Timing for main: time 2016-02-05_12:58:40 on domain   4:     .32443 elapsed seconds
Timing for main: time 2016-02-05_12:58:40 on domain   2:    2.46634 elapsed seconds
Timing for main: time 2016-02-05_12:58:53 on domain   3:     .28845 elapsed seconds
Timing for main: time 2016-02-05_12:59:06 on domain   3:     .26741 elapsed seconds
Timing for main: time 2016-02-05_12:59:20 on domain   3:     .27020 elapsed seconds
Timing for main: time 2016-02-05_12:59:00 on domain   4:     .34342 elapsed seconds
Timing for main: time 2016-02-05_12:59:20 on domain   4:     .32446 elapsed seconds
Timing for main: time 2016-02-05_12:59:20 on domain   2:    2.43047 elapsed seconds
  photolysis_driver: called for domain  2
Timing for main: time 2016-02-05_12:59:33 on domain   3:     .28704 elapsed seconds
Timing for main: time 2016-02-05_12:59:46 on domain   3:     .27066 elapsed seconds
  photolysis_driver: called for domain  3
Timing for main: time 2016-02-05_13:00:00 on domain   3:    1.65427 elapsed seconds
Timing for main: time 2016-02-05_12:59:40 on domain   4:     .34438 elapsed seconds
  photolysis_driver: called for domain  4
Timing for main: time 2016-02-05_13:00:00 on domain   4:    1.92320 elapsed seconds
Timing for main: time 2016-02-05_13:00:00 on domain   2:    7.14117 elapsed seconds
Timing for main: time 2016-02-05_13:00:00 on domain   1:   13.55495 elapsed seconds
Timing for Writing wrfout_d01_2016-02-05_13:00:00 for domain        1:    1.31316 elapsed seconds
  HOURLY EMISSIONS UPDATE TIME     3600.0        .0
 mediation_integrate: med_read_wrf_chem_emissions: Read emissions for time 2016-02-05_13:00:00
 **WARNING** Time in input file not being checked **WARNING**
Timing for Writing wrfout_d02_2016-02-05_13:00:00 for domain        2:    1.88057 elapsed seconds
Timing for Writing wrfout_d03_2016-02-05_13:00:00 for domain        3:    2.48166 elapsed seconds
Timing for main: time 2016-02-05_13:00:13 on domain   3:    3.05947 elapsed seconds
Timing for main: time 2016-02-05_13:00:26 on domain   3:     .29138 elapsed seconds
Timing for main: time 2016-02-05_13:00:40 on domain   3:     .30423 elapsed seconds
Timing for Writing wrfout_d04_2016-02-05_13:00:00 for domain        4:    1.86340 elapsed seconds
Timing for main: time 2016-02-05_13:00:20 on domain   4:    2.57032 elapsed seconds
Timing for main: time 2016-02-05_13:00:40 on domain   4:     .34358 elapsed seconds
Timing for main: time 2016-02-05_13:00:40 on domain   2:    9.80373 elapsed seconds
Timing for main: time 2016-02-05_13:00:53 on domain   3:     .32093 elapsed seconds
Timing for main: time 2016-02-05_13:01:06 on domain   3:     .30930 elapsed seconds
Timing for main: time 2016-02-05_13:01:20 on domain   3:     .28502 elapsed seconds
Timing for main: time 2016-02-05_13:01:00 on domain   4:     .34448 elapsed seconds
Timing for main: time 2016-02-05_13:01:20 on domain   4:     .32378 elapsed seconds
Timing for main: time 2016-02-05_13:01:20 on domain   2:    2.56039 elapsed seconds
Timing for main: time 2016-02-05_13:01:33 on domain   3:     .28549 elapsed seconds
Timing for main: time 2016-02-05_13:01:46 on domain   3:     .27081 elapsed seconds
Timing for main: time 2016-02-05_13:02:00 on domain   3:     .27086 elapsed seconds
Timing for main: time 2016-02-05_13:01:40 on domain   4:     .34463 elapsed seconds
Timing for main: time 2016-02-05_13:02:00 on domain   4:     .32502 elapsed seconds
Timing for main: time 2016-02-05_13:02:00 on domain   2:    2.43384 elapsed seconds
Timing for main: time 2016-02-05_13:02:00 on domain   1:   18.19638 elapsed seconds
Timing for main: time 2016-02-05_13:02:13 on domain   3:     .28590 elapsed seconds
Timing for main: time 2016-02-05_13:02:26 on domain   3:     .27037 elapsed seconds
Timing for main: time 2016-02-05_13:02:40 on domain   3:     .26988 elapsed seconds
Timing for main: time 2016-02-05_13:02:20 on domain   4:     .34329 elapsed seconds
Timing for main: time 2016-02-05_13:02:40 on domain   4:     .32445 elapsed seconds
Timing for main: time 2016-02-05_13:02:40 on domain   2:    2.45643 elapsed seconds
Timing for main: time 2016-02-05_13:02:53 on domain   3:     .28548 elapsed seconds
Timing for main: time 2016-02-05_13:03:06 on domain   3:     .27071 elapsed seconds
Timing for main: time 2016-02-05_13:03:20 on domain   3:     .27111 elapsed seconds
Timing for main: time 2016-02-05_13:03:00 on domain   4:     .34484 elapsed seconds
Timing for main: time 2016-02-05_13:03:20 on domain   4:     .32535 elapsed seconds
Timing for main: time 2016-02-05_13:03:20 on domain   2:    2.43672 elapsed seconds
Timing for main: time 2016-02-05_13:03:33 on domain   3:     .28538 elapsed seconds
Timing for main: time 2016-02-05_13:03:46 on domain   3:     .27025 elapsed seconds
Timing for main: time 2016-02-05_13:04:00 on domain   3:     .27031 elapsed seconds
Timing for main: time 2016-02-05_13:03:40 on domain   4:     .34377 elapsed seconds
Timing for main: time 2016-02-05_13:04:00 on domain   4:     .33938 elapsed seconds
Timing for main: time 2016-02-05_13:04:00 on domain   2:    2.46336 elapsed seconds
Timing for main: time 2016-02-05_13:04:00 on domain   1:    7.83272 elapsed seconds
Timing for main: time 2016-02-05_13:04:13 on domain   3:     .28524 elapsed seconds
Timing for main: time 2016-02-05_13:04:26 on domain   3:     .27116 elapsed seconds
Timing for main: time 2016-02-05_13:04:40 on domain   3:     .27077 elapsed seconds
Timing for main: time 2016-02-05_13:04:20 on domain   4:     .34379 elapsed seconds
Timing for main: time 2016-02-05_13:04:40 on domain   4:     .32454 elapsed seconds
Timing for main: time 2016-02-05_13:04:40 on domain   2:    2.51031 elapsed seconds
Timing for main: time 2016-02-05_13:04:53 on domain   3:     .28538 elapsed seconds
Timing for main: time 2016-02-05_13:05:06 on domain   3:     .27055 elapsed seconds
Timing for main: time 2016-02-05_13:05:20 on domain   3:     .27150 elapsed seconds
Timing for main: time 2016-02-05_13:05:00 on domain   4:     .35842 elapsed seconds
Timing for main: time 2016-02-05_13:05:20 on domain   4:     .32452 elapsed seconds
Timing for main: time 2016-02-05_13:05:20 on domain   2:    2.44485 elapsed seconds
Timing for main: time 2016-02-05_13:05:33 on domain   3:     .28628 elapsed seconds
Timing for main: time 2016-02-05_13:05:46 on domain   3:     .27181 elapsed seconds
Timing for main: time 2016-02-05_13:06:00 on domain   3:     .27039 elapsed seconds
Timing for main: time 2016-02-05_13:05:40 on domain   4:     .35001 elapsed seconds
Timing for main: time 2016-02-05_13:06:00 on domain   4:     .32461 elapsed seconds
Timing for main: time 2016-02-05_13:06:00 on domain   2:    2.43770 elapsed seconds
Timing for main: time 2016-02-05_13:06:00 on domain   1:    7.87971 elapsed seconds
Timing for main: time 2016-02-05_13:06:13 on domain   3:     .28634 elapsed seconds
Timing for main: time 2016-02-05_13:06:26 on domain   3:     .28556 elapsed seconds
Timing for main: time 2016-02-05_13:06:40 on domain   3:     .27092 elapsed seconds
Timing for main: time 2016-02-05_13:06:20 on domain   4:     .34413 elapsed seconds
Timing for main: time 2016-02-05_13:06:40 on domain   4:     .32429 elapsed seconds
Timing for main: time 2016-02-05_13:06:40 on domain   2:    2.46407 elapsed seconds
Timing for main: time 2016-02-05_13:06:53 on domain   3:     .28794 elapsed seconds
Timing for main: time 2016-02-05_13:07:06 on domain   3:     .27066 elapsed seconds
Timing for main: time 2016-02-05_13:07:20 on domain   3:     .27099 elapsed seconds
Timing for main: time 2016-02-05_13:07:00 on domain   4:     .34480 elapsed seconds
Timing for main: time 2016-02-05_13:07:20 on domain   4:     .32479 elapsed seconds
Timing for main: time 2016-02-05_13:07:20 on domain   2:    2.43455 elapsed seconds
Timing for main: time 2016-02-05_13:07:33 on domain   3:     .28530 elapsed seconds
Timing for main: time 2016-02-05_13:07:46 on domain   3:     .27096 elapsed seconds
Timing for main: time 2016-02-05_13:08:00 on domain   3:     .27064 elapsed seconds
Timing for main: time 2016-02-05_13:07:40 on domain   4:     .34608 elapsed seconds
Timing for main: time 2016-02-05_13:08:00 on domain   4:     .32388 elapsed seconds
Timing for main: time 2016-02-05_13:08:00 on domain   2:    2.43128 elapsed seconds
Timing for main: time 2016-02-05_13:08:00 on domain   1:    7.80996 elapsed seconds
Timing for main: time 2016-02-05_13:08:13 on domain   3:     .28562 elapsed seconds
Timing for main: time 2016-02-05_13:08:26 on domain   3:     .27121 elapsed seconds
Timing for main: time 2016-02-05_13:08:40 on domain   3:     .27083 elapsed seconds
Timing for main: time 2016-02-05_13:08:20 on domain   4:     .34764 elapsed seconds
Timing for main: time 2016-02-05_13:08:40 on domain   4:     .32357 elapsed seconds
Timing for main: time 2016-02-05_13:08:40 on domain   2:    2.45270 elapsed seconds
Timing for main: time 2016-02-05_13:08:53 on domain   3:     .28653 elapsed seconds
Timing for main: time 2016-02-05_13:09:06 on domain   3:     .26985 elapsed seconds
Timing for main: time 2016-02-05_13:09:20 on domain   3:     .27310 elapsed seconds
Timing for main: time 2016-02-05_13:09:00 on domain   4:     .34374 elapsed seconds
Timing for main: time 2016-02-05_13:09:20 on domain   4:     .32464 elapsed seconds
Timing for main: time 2016-02-05_13:09:20 on domain   2:    2.44846 elapsed seconds
Timing for main: time 2016-02-05_13:09:33 on domain   3:     .28540 elapsed seconds
Timing for main: time 2016-02-05_13:09:46 on domain   3:     .27130 elapsed seconds
Timing for main: time 2016-02-05_13:10:00 on domain   3:     .27049 elapsed seconds
Timing for main: time 2016-02-05_13:09:40 on domain   4:     .34771 elapsed seconds
Timing for main: time 2016-02-05_13:10:00 on domain   4:     .33949 elapsed seconds
Timing for main: time 2016-02-05_13:10:00 on domain   2:    2.44799 elapsed seconds
Timing for main: time 2016-02-05_13:10:00 on domain   1:    7.82502 elapsed seconds
Timing for main: time 2016-02-05_13:10:13 on domain   3:     .28498 elapsed seconds
Timing for main: time 2016-02-05_13:10:26 on domain   3:     .27081 elapsed seconds
Timing for main: time 2016-02-05_13:10:40 on domain   3:     .27044 elapsed seconds
Timing for main: time 2016-02-05_13:10:20 on domain   4:     .39817 elapsed seconds
Timing for main: time 2016-02-05_13:10:40 on domain   4:     .32412 elapsed seconds
Timing for main: time 2016-02-05_13:10:40 on domain   2:    2.50290 elapsed seconds
Timing for main: time 2016-02-05_13:10:53 on domain   3:     .29647 elapsed seconds
Timing for main: time 2016-02-05_13:11:06 on domain   3:     .27118 elapsed seconds
Timing for main: time 2016-02-05_13:11:20 on domain   3:     .27219 elapsed seconds
Timing for main: time 2016-02-05_13:11:00 on domain   4:     .34390 elapsed seconds
Timing for main: time 2016-02-05_13:11:20 on domain   4:     .32405 elapsed seconds
Timing for main: time 2016-02-05_13:11:20 on domain   2:    2.44479 elapsed seconds
Timing for main: time 2016-02-05_13:11:33 on domain   3:     .29785 elapsed seconds
Timing for main: time 2016-02-05_13:11:46 on domain   3:     .27128 elapsed seconds
Timing for main: time 2016-02-05_13:12:00 on domain   3:     .27112 elapsed seconds
Timing for main: time 2016-02-05_13:11:40 on domain   4:     .34358 elapsed seconds
Timing for main: time 2016-02-05_13:12:00 on domain   4:     .32408 elapsed seconds
Timing for main: time 2016-02-05_13:12:00 on domain   2:    2.44552 elapsed seconds
Timing for main: time 2016-02-05_13:12:00 on domain   1:    7.87948 elapsed seconds
Timing for main: time 2016-02-05_13:12:13 on domain   3:     .28557 elapsed seconds
Timing for main: time 2016-02-05_13:12:26 on domain   3:     .27073 elapsed seconds
Timing for main: time 2016-02-05_13:12:40 on domain   3:     .27117 elapsed seconds
Timing for main: time 2016-02-05_13:12:20 on domain   4:     .34352 elapsed seconds
Timing for main: time 2016-02-05_13:12:40 on domain   4:     .32483 elapsed seconds
Timing for main: time 2016-02-05_13:12:40 on domain   2:    2.45015 elapsed seconds
Timing for main: time 2016-02-05_13:12:53 on domain   3:     .28633 elapsed seconds
Timing for main: time 2016-02-05_13:13:06 on domain   3:     .27072 elapsed seconds
Timing for main: time 2016-02-05_13:13:20 on domain   3:     .27074 elapsed seconds
Timing for main: time 2016-02-05_13:13:00 on domain   4:     .34397 elapsed seconds
Timing for main: time 2016-02-05_13:13:20 on domain   4:     .32551 elapsed seconds
Timing for main: time 2016-02-05_13:13:20 on domain   2:    2.43214 elapsed seconds
Timing for main: time 2016-02-05_13:13:33 on domain   3:     .28521 elapsed seconds
Timing for main: time 2016-02-05_13:13:46 on domain   3:     .27029 elapsed seconds
Timing for main: time 2016-02-05_13:14:00 on domain   3:     .27307 elapsed seconds
Timing for main: time 2016-02-05_13:13:40 on domain   4:     .34374 elapsed seconds
Timing for main: time 2016-02-05_13:14:00 on domain   4:     .32432 elapsed seconds
Timing for main: time 2016-02-05_13:14:00 on domain   2:    2.43214 elapsed seconds
Timing for main: time 2016-02-05_13:14:00 on domain   1:    7.79015 elapsed seconds
Timing for main: time 2016-02-05_13:14:13 on domain   3:     .28576 elapsed seconds
Timing for main: time 2016-02-05_13:14:26 on domain   3:     .27055 elapsed seconds
Timing for main: time 2016-02-05_13:14:40 on domain   3:     .27071 elapsed seconds
Timing for main: time 2016-02-05_13:14:20 on domain   4:     .34463 elapsed seconds
Timing for main: time 2016-02-05_13:14:40 on domain   4:     .32528 elapsed seconds
Timing for main: time 2016-02-05_13:14:40 on domain   2:    2.46676 elapsed seconds
Timing for main: time 2016-02-05_13:14:53 on domain   3:     .28536 elapsed seconds
Timing for main: time 2016-02-05_13:15:06 on domain   3:     .27061 elapsed seconds
Timing for main: time 2016-02-05_13:15:20 on domain   3:     .27031 elapsed seconds
Timing for main: time 2016-02-05_13:15:00 on domain   4:     .36066 elapsed seconds
Timing for main: time 2016-02-05_13:15:20 on domain   4:     .32473 elapsed seconds
Timing for main: time 2016-02-05_13:15:20 on domain   2:    2.44653 elapsed seconds
Timing for main: time 2016-02-05_13:15:33 on domain   3:     .28535 elapsed seconds
Timing for main: time 2016-02-05_13:15:46 on domain   3:     .27107 elapsed seconds
Timing for main: time 2016-02-05_13:16:00 on domain   3:     .27083 elapsed seconds
Timing for main: time 2016-02-05_13:15:40 on domain   4:     .34300 elapsed seconds
Timing for main: time 2016-02-05_13:16:00 on domain   4:     .32497 elapsed seconds
Timing for main: time 2016-02-05_13:16:00 on domain   2:    2.42984 elapsed seconds
Timing for main: time 2016-02-05_13:16:00 on domain   1:    7.81934 elapsed seconds
Timing for main: time 2016-02-05_13:16:13 on domain   3:     .28560 elapsed seconds
Timing for main: time 2016-02-05_13:16:26 on domain   3:     .27165 elapsed seconds
Timing for main: time 2016-02-05_13:16:40 on domain   3:     .28354 elapsed seconds
Timing for main: time 2016-02-05_13:16:20 on domain   4:     .34427 elapsed seconds
Timing for main: time 2016-02-05_13:16:40 on domain   4:     .32367 elapsed seconds
Timing for main: time 2016-02-05_13:16:40 on domain   2:    2.46275 elapsed seconds
Timing for main: time 2016-02-05_13:16:53 on domain   3:     .28576 elapsed seconds
Timing for main: time 2016-02-05_13:17:06 on domain   3:     .27005 elapsed seconds
Timing for main: time 2016-02-05_13:17:20 on domain   3:     .27136 elapsed seconds
Timing for main: time 2016-02-05_13:17:00 on domain   4:     .34402 elapsed seconds
Timing for main: time 2016-02-05_13:17:20 on domain   4:     .32427 elapsed seconds
Timing for main: time 2016-02-05_13:17:20 on domain   2:    2.43154 elapsed seconds
[...]
Timing for main: time 2016-02-06_17:36:00 on domain   2:    2.46336 elapsed seconds
Timing for main: time 2016-02-06_17:36:00 on domain   1:    7.89688 elapsed seconds
Timing for main: time 2016-02-06_17:36:13 on domain   3:     .29071 elapsed seconds
Timing for main: time 2016-02-06_17:36:26 on domain   3:     .28081 elapsed seconds
Timing for main: time 2016-02-06_17:36:40 on domain   3:     .27879 elapsed seconds
Timing for main: time 2016-02-06_17:36:20 on domain   4:     .34490 elapsed seconds
Timing for main: time 2016-02-06_17:36:40 on domain   4:     .32390 elapsed seconds
Timing for main: time 2016-02-06_17:36:40 on domain   2:    2.47504 elapsed seconds
Timing for main: time 2016-02-06_17:36:53 on domain   3:     .29088 elapsed seconds
Timing for main: time 2016-02-06_17:37:06 on domain   3:     .27672 elapsed seconds
Timing for main: time 2016-02-06_17:37:20 on domain   3:     .27670 elapsed seconds
Timing for main: time 2016-02-06_17:37:00 on domain   4:     .34422 elapsed seconds
Timing for main: time 2016-02-06_17:37:20 on domain   4:     .32362 elapsed seconds
Timing for main: time 2016-02-06_17:37:20 on domain   2:    2.44836 elapsed seconds
Timing for main: time 2016-02-06_17:37:33 on domain   3:     .29055 elapsed seconds
Timing for main: time 2016-02-06_17:37:46 on domain   3:     .27877 elapsed seconds
Timing for main: time 2016-02-06_17:38:00 on domain   3:     .28285 elapsed seconds
Timing for main: time 2016-02-06_17:37:40 on domain   4:     .34582 elapsed seconds
Timing for main: time 2016-02-06_17:38:00 on domain   4:     .32685 elapsed seconds
Timing for main: time 2016-02-06_17:38:00 on domain   2:    2.45879 elapsed seconds
Timing for main: time 2016-02-06_17:38:00 on domain   1:    7.86461 elapsed seconds
Timing for main: time 2016-02-06_17:38:13 on domain   3:     .29065 elapsed seconds
Timing for main: time 2016-02-06_17:38:26 on domain   3:     .27655 elapsed seconds
Timing for main: time 2016-02-06_17:38:40 on domain   3:     .28921 elapsed seconds
Timing for main: time 2016-02-06_17:38:20 on domain   4:     .34436 elapsed seconds
Timing for main: time 2016-02-06_17:38:40 on domain   4:     .32383 elapsed seconds
Timing for main: time 2016-02-06_17:38:40 on domain   2:    2.48056 elapsed seconds
Timing for main: time 2016-02-06_17:38:53 on domain   3:     .29094 elapsed seconds
Timing for main: time 2016-02-06_17:39:06 on domain   3:     .27738 elapsed seconds
Timing for main: time 2016-02-06_17:39:20 on domain   3:     .27694 elapsed seconds
Timing for main: time 2016-02-06_17:39:00 on domain   4:     .34418 elapsed seconds
Timing for main: time 2016-02-06_17:39:20 on domain   4:     .32369 elapsed seconds
Timing for main: time 2016-02-06_17:39:20 on domain   2:    2.45032 elapsed seconds
Timing for main: time 2016-02-06_17:39:33 on domain   3:     .29311 elapsed seconds
Timing for main: time 2016-02-06_17:39:46 on domain   3:     .27710 elapsed seconds
Timing for main: time 2016-02-06_17:40:00 on domain   3:     .27775 elapsed seconds
Timing for main: time 2016-02-06_17:39:40 on domain   4:     .34446 elapsed seconds
Timing for main: time 2016-02-06_17:40:00 on domain   4:     .33874 elapsed seconds
Timing for main: time 2016-02-06_17:40:00 on domain   2:    2.46758 elapsed seconds
Timing for main: time 2016-02-06_17:40:00 on domain   1:    7.87488 elapsed seconds
Timing for main: time 2016-02-06_17:40:13 on domain   3:     .29086 elapsed seconds
Timing for main: time 2016-02-06_17:40:26 on domain   3:     .27668 elapsed seconds
Timing for main: time 2016-02-06_17:40:40 on domain   3:     .27674 elapsed seconds
Timing for main: time 2016-02-06_17:40:20 on domain   4:     .34189 elapsed seconds
Timing for main: time 2016-02-06_17:40:40 on domain   4:     .32576 elapsed seconds
Timing for main: time 2016-02-06_17:40:40 on domain   2:    2.47194 elapsed seconds
Timing for main: time 2016-02-06_17:40:53 on domain   3:     .29064 elapsed seconds
Timing for main: time 2016-02-06_17:41:06 on domain   3:     .27854 elapsed seconds
Timing for main: time 2016-02-06_17:41:20 on domain   3:     .27746 elapsed seconds
Timing for main: time 2016-02-06_17:41:00 on domain   4:     .34557 elapsed seconds
Timing for main: time 2016-02-06_17:41:20 on domain   4:     .32478 elapsed seconds
Timing for main: time 2016-02-06_17:41:20 on domain   2:    2.47014 elapsed seconds
Timing for main: time 2016-02-06_17:41:33 on domain   3:     .29079 elapsed seconds
Timing for main: time 2016-02-06_17:41:46 on domain   3:     .27694 elapsed seconds
Timing for main: time 2016-02-06_17:42:00 on domain   3:     .27660 elapsed seconds
Timing for main: time 2016-02-06_17:41:40 on domain   4:     .34382 elapsed seconds
Timing for main: time 2016-02-06_17:42:00 on domain   4:     .32473 elapsed seconds
Timing for main: time 2016-02-06_17:42:00 on domain   2:    2.44876 elapsed seconds
Timing for main: time 2016-02-06_17:42:00 on domain   1:    7.88048 elapsed seconds
Timing for main: time 2016-02-06_17:42:13 on domain   3:     .29149 elapsed seconds
Timing for main: time 2016-02-06_17:42:26 on domain   3:     .27823 elapsed seconds
Timing for main: time 2016-02-06_17:42:40 on domain   3:     .27702 elapsed seconds
Timing for main: time 2016-02-06_17:42:20 on domain   4:     .34433 elapsed seconds
Timing for main: time 2016-02-06_17:42:40 on domain   4:     .32391 elapsed seconds
Timing for main: time 2016-02-06_17:42:40 on domain   2:    2.47200 elapsed seconds
Timing for main: time 2016-02-06_17:42:53 on domain   3:     .29171 elapsed seconds
Timing for main: time 2016-02-06_17:43:06 on domain   3:     .27591 elapsed seconds
Timing for main: time 2016-02-06_17:43:20 on domain   3:     .27747 elapsed seconds
Timing for main: time 2016-02-06_17:43:00 on domain   4:     .35089 elapsed seconds
Timing for main: time 2016-02-06_17:43:20 on domain   4:     .32395 elapsed seconds
Timing for main: time 2016-02-06_17:43:20 on domain   2:    2.45623 elapsed seconds
Timing for main: time 2016-02-06_17:43:33 on domain   3:     .29070 elapsed seconds
Timing for main: time 2016-02-06_17:43:46 on domain   3:     .28946 elapsed seconds
Timing for main: time 2016-02-06_17:44:00 on domain   3:     .27714 elapsed seconds
Timing for main: time 2016-02-06_17:43:40 on domain   4:     .34423 elapsed seconds
Timing for main: time 2016-02-06_17:44:00 on domain   4:     .32389 elapsed seconds
Timing for main: time 2016-02-06_17:44:00 on domain   2:    2.46206 elapsed seconds
Timing for main: time 2016-02-06_17:44:00 on domain   1:    7.86860 elapsed seconds
Timing for main: time 2016-02-06_17:44:13 on domain   3:     .29083 elapsed seconds
Timing for main: time 2016-02-06_17:44:26 on domain   3:     .27682 elapsed seconds
Timing for main: time 2016-02-06_17:44:40 on domain   3:     .27663 elapsed seconds
Timing for main: time 2016-02-06_17:44:20 on domain   4:     .34427 elapsed seconds
Timing for main: time 2016-02-06_17:44:40 on domain   4:     .32379 elapsed seconds
Timing for main: time 2016-02-06_17:44:40 on domain   2:    2.46954 elapsed seconds
Timing for main: time 2016-02-06_17:44:53 on domain   3:     .29065 elapsed seconds
Timing for main: time 2016-02-06_17:45:06 on domain   3:     .27676 elapsed seconds
Timing for main: time 2016-02-06_17:45:20 on domain   3:     .27700 elapsed seconds
Timing for main: time 2016-02-06_17:45:00 on domain   4:     .36016 elapsed seconds
Timing for main: time 2016-02-06_17:45:20 on domain   4:     .32461 elapsed seconds
Timing for main: time 2016-02-06_17:45:20 on domain   2:    2.46510 elapsed seconds
Timing for main: time 2016-02-06_17:45:33 on domain   3:     .29196 elapsed seconds
Timing for main: time 2016-02-06_17:45:46 on domain   3:     .27609 elapsed seconds
Timing for main: time 2016-02-06_17:46:00 on domain   3:     .27664 elapsed seconds
Timing for main: time 2016-02-06_17:45:40 on domain   4:     .34396 elapsed seconds
Timing for main: time 2016-02-06_17:46:00 on domain   4:     .32393 elapsed seconds
Timing for main: time 2016-02-06_17:46:00 on domain   2:    2.45047 elapsed seconds
Timing for main: time 2016-02-06_17:46:00 on domain   1:    7.88473 elapsed seconds
Timing for main: time 2016-02-06_17:46:13 on domain   3:     .29048 elapsed seconds
Timing for main: time 2016-02-06_17:46:26 on domain   3:     .27890 elapsed seconds
Timing for main: time 2016-02-06_17:46:40 on domain   3:     .28008 elapsed seconds
Timing for main: time 2016-02-06_17:46:20 on domain   4:     .34683 elapsed seconds
Timing for main: time 2016-02-06_17:46:40 on domain   4:     .32458 elapsed seconds
Timing for main: time 2016-02-06_17:46:40 on domain   2:    2.49369 elapsed seconds
Timing for main: time 2016-02-06_17:46:53 on domain   3:     .29090 elapsed seconds
Timing for main: time 2016-02-06_17:47:06 on domain   3:     .27719 elapsed seconds
Timing for main: time 2016-02-06_17:47:20 on domain   3:     .27683 elapsed seconds
Timing for main: time 2016-02-06_17:47:00 on domain   4:     .34502 elapsed seconds
Timing for main: time 2016-02-06_17:47:20 on domain   4:     .32674 elapsed seconds
Timing for main: time 2016-02-06_17:47:20 on domain   2:    2.45374 elapsed seconds
Timing for main: time 2016-02-06_17:47:33 on domain   3:     .29078 elapsed seconds
Timing for main: time 2016-02-06_17:47:46 on domain   3:     .27708 elapsed seconds
Timing for main: time 2016-02-06_17:48:00 on domain   3:     .27722 elapsed seconds
Timing for main: time 2016-02-06_17:47:40 on domain   4:     .34423 elapsed seconds
Timing for main: time 2016-02-06_17:48:00 on domain   4:     .32390 elapsed seconds
Timing for main: time 2016-02-06_17:48:00 on domain   2:    2.44953 elapsed seconds
Timing for main: time 2016-02-06_17:48:00 on domain   1:    7.88699 elapsed seconds
Timing for main: time 2016-02-06_17:48:13 on domain   3:     .29073 elapsed seconds
Timing for main: time 2016-02-06_17:48:26 on domain   3:     .27644 elapsed seconds
Timing for main: time 2016-02-06_17:48:40 on domain   3:     .27658 elapsed seconds
Timing for main: time 2016-02-06_17:48:20 on domain   4:     .34449 elapsed seconds
Timing for main: time 2016-02-06_17:48:40 on domain   4:     .32422 elapsed seconds
Timing for main: time 2016-02-06_17:48:40 on domain   2:    2.46924 elapsed seconds
Timing for main: time 2016-02-06_17:48:53 on domain   3:     .30340 elapsed seconds
Timing for main: time 2016-02-06_17:49:06 on domain   3:     .29735 elapsed seconds
Timing for main: time 2016-02-06_17:49:20 on domain   3:     .36700 elapsed seconds
Timing for main: time 2016-02-06_17:49:00 on domain   4:     .34669 elapsed seconds
Timing for main: time 2016-02-06_17:49:20 on domain   4:     .32440 elapsed seconds
Timing for main: time 2016-02-06_17:49:20 on domain   2:    2.57161 elapsed seconds
Timing for main: time 2016-02-06_17:49:33 on domain   3:     .29078 elapsed seconds
Timing for main: time 2016-02-06_17:49:46 on domain   3:     .27645 elapsed seconds
Timing for main: time 2016-02-06_17:50:00 on domain   3:     .27702 elapsed seconds
Timing for main: time 2016-02-06_17:49:40 on domain   4:     .34608 elapsed seconds
Timing for main: time 2016-02-06_17:50:00 on domain   4:     .33889 elapsed seconds
Timing for main: time 2016-02-06_17:50:00 on domain   2:    2.46617 elapsed seconds
Timing for main: time 2016-02-06_17:50:00 on domain   1:    7.98628 elapsed seconds
Timing for main: time 2016-02-06_17:50:13 on domain   3:     .29239 elapsed seconds
Timing for main: time 2016-02-06_17:50:26 on domain   3:     .27716 elapsed seconds
Timing for main: time 2016-02-06_17:50:40 on domain   3:     .27664 elapsed seconds
Timing for main: time 2016-02-06_17:50:20 on domain   4:     .34605 elapsed seconds
Timing for main: time 2016-02-06_17:50:40 on domain   4:     .32254 elapsed seconds
Timing for main: time 2016-02-06_17:50:40 on domain   2:    2.47233 elapsed seconds
Timing for main: time 2016-02-06_17:50:53 on domain   3:     .29186 elapsed seconds
Timing for main: time 2016-02-06_17:51:06 on domain   3:     .27661 elapsed seconds
Timing for main: time 2016-02-06_17:51:20 on domain   3:     .27792 elapsed seconds
Timing for main: time 2016-02-06_17:51:00 on domain   4:     .34442 elapsed seconds
Timing for main: time 2016-02-06_17:51:20 on domain   4:     .32383 elapsed seconds
Timing for main: time 2016-02-06_17:51:20 on domain   2:    2.45186 elapsed seconds
Timing for main: time 2016-02-06_17:51:33 on domain   3:     .29039 elapsed seconds
Timing for main: time 2016-02-06_17:51:46 on domain   3:     .27794 elapsed seconds
Timing for main: time 2016-02-06_17:52:00 on domain   3:     .27779 elapsed seconds
Timing for main: time 2016-02-06_17:51:40 on domain   4:     .34568 elapsed seconds
Timing for main: time 2016-02-06_17:52:00 on domain   4:     .32437 elapsed seconds
Timing for main: time 2016-02-06_17:52:00 on domain   2:    2.46895 elapsed seconds
Timing for main: time 2016-02-06_17:52:00 on domain   1:    7.87117 elapsed seconds
Timing for main: time 2016-02-06_17:52:13 on domain   3:     .29051 elapsed seconds
Timing for main: time 2016-02-06_17:52:26 on domain   3:     .27806 elapsed seconds
Timing for main: time 2016-02-06_17:52:40 on domain   3:     .27666 elapsed seconds
Timing for main: time 2016-02-06_17:52:20 on domain   4:     .40503 elapsed seconds
Timing for main: time 2016-02-06_17:52:40 on domain   4:     .35653 elapsed seconds
Timing for main: time 2016-02-06_17:52:40 on domain   2:    2.56370 elapsed seconds
Timing for main: time 2016-02-06_17:52:53 on domain   3:     .29336 elapsed seconds
Timing for main: time 2016-02-06_17:53:06 on domain   3:     .27696 elapsed seconds
Timing for main: time 2016-02-06_17:53:20 on domain   3:     .27701 elapsed seconds
Timing for main: time 2016-02-06_17:53:00 on domain   4:     .34165 elapsed seconds
Timing for main: time 2016-02-06_17:53:20 on domain   4:     .32419 elapsed seconds
Timing for main: time 2016-02-06_17:53:20 on domain   2:    2.46478 elapsed seconds
Timing for main: time 2016-02-06_17:53:33 on domain   3:     .29035 elapsed seconds
Timing for main: time 2016-02-06_17:53:46 on domain   3:     .27712 elapsed seconds
Timing for main: time 2016-02-06_17:54:00 on domain   3:     .29087 elapsed seconds
Timing for main: time 2016-02-06_17:53:40 on domain   4:     .34435 elapsed seconds
Timing for main: time 2016-02-06_17:54:00 on domain   4:     .32353 elapsed seconds
Timing for main: time 2016-02-06_17:54:00 on domain   2:    2.46388 elapsed seconds
Timing for main: time 2016-02-06_17:54:00 on domain   1:    7.98125 elapsed seconds
Timing for main: time 2016-02-06_17:54:13 on domain   3:     .29154 elapsed seconds
Timing for main: time 2016-02-06_17:54:26 on domain   3:     .27667 elapsed seconds
Timing for main: time 2016-02-06_17:54:40 on domain   3:     .27687 elapsed seconds
Timing for main: time 2016-02-06_17:54:20 on domain   4:     .34496 elapsed seconds
Timing for main: time 2016-02-06_17:54:40 on domain   4:     .32423 elapsed seconds
Timing for main: time 2016-02-06_17:54:40 on domain   2:    2.47148 elapsed seconds
Timing for main: time 2016-02-06_17:54:53 on domain   3:     .29094 elapsed seconds
Timing for main: time 2016-02-06_17:55:06 on domain   3:     .27774 elapsed seconds
Timing for main: time 2016-02-06_17:55:20 on domain   3:     .27736 elapsed seconds
Timing for main: time 2016-02-06_17:55:00 on domain   4:     .35890 elapsed seconds
Timing for main: time 2016-02-06_17:55:20 on domain   4:     .32398 elapsed seconds
Timing for main: time 2016-02-06_17:55:20 on domain   2:    2.47063 elapsed seconds
Timing for main: time 2016-02-06_17:55:33 on domain   3:     .29065 elapsed seconds
Timing for main: time 2016-02-06_17:55:46 on domain   3:     .27720 elapsed seconds
Timing for main: time 2016-02-06_17:56:00 on domain   3:     .27678 elapsed seconds
Timing for main: time 2016-02-06_17:55:40 on domain   4:     .34532 elapsed seconds
Timing for main: time 2016-02-06_17:56:00 on domain   4:     .32317 elapsed seconds
Timing for main: time 2016-02-06_17:56:00 on domain   2:    2.45128 elapsed seconds
Timing for main: time 2016-02-06_17:56:00 on domain   1:    7.87299 elapsed seconds
Timing for main: time 2016-02-06_17:56:13 on domain   3:     .29040 elapsed seconds
Timing for main: time 2016-02-06_17:56:26 on domain   3:     .27679 elapsed seconds
Timing for main: time 2016-02-06_17:56:40 on domain   3:     .27711 elapsed seconds
Timing for main: time 2016-02-06_17:56:20 on domain   4:     .34418 elapsed seconds
Timing for main: time 2016-02-06_17:56:40 on domain   4:     .32719 elapsed seconds
Timing for main: time 2016-02-06_17:56:40 on domain   2:    2.47341 elapsed seconds
Timing for main: time 2016-02-06_17:56:53 on domain   3:     .29052 elapsed seconds
Timing for main: time 2016-02-06_17:57:06 on domain   3:     .27711 elapsed seconds
Timing for main: time 2016-02-06_17:57:20 on domain   3:     .27684 elapsed seconds
Timing for main: time 2016-02-06_17:57:00 on domain   4:     .34466 elapsed seconds
Timing for main: time 2016-02-06_17:57:20 on domain   4:     .32448 elapsed seconds
Timing for main: time 2016-02-06_17:57:20 on domain   2:    2.46577 elapsed seconds
Timing for main: time 2016-02-06_17:57:33 on domain   3:     .29039 elapsed seconds
Timing for main: time 2016-02-06_17:57:46 on domain   3:     .27652 elapsed seconds
Timing for main: time 2016-02-06_17:58:00 on domain   3:     .27736 elapsed seconds
Timing for main: time 2016-02-06_17:57:40 on domain   4:     .34494 elapsed seconds
Timing for main: time 2016-02-06_17:58:00 on domain   4:     .32407 elapsed seconds
Timing for main: time 2016-02-06_17:58:00 on domain   2:    2.45316 elapsed seconds
Timing for main: time 2016-02-06_17:58:00 on domain   1:    7.87036 elapsed seconds
  photolysis_driver: called for domain  1
Timing for main: time 2016-02-06_17:58:13 on domain   3:     .29193 elapsed seconds
Timing for main: time 2016-02-06_17:58:26 on domain   3:     .27670 elapsed seconds
Timing for main: time 2016-02-06_17:58:40 on domain   3:     .27689 elapsed seconds
Timing for main: time 2016-02-06_17:58:20 on domain   4:     .34442 elapsed seconds
Timing for main: time 2016-02-06_17:58:40 on domain   4:     .32497 elapsed seconds
Timing for main: time 2016-02-06_17:58:40 on domain   2:    2.47357 elapsed seconds
Timing for main: time 2016-02-06_17:58:53 on domain   3:     .28980 elapsed seconds
Timing for main: time 2016-02-06_17:59:06 on domain   3:     .29568 elapsed seconds
Timing for main: time 2016-02-06_17:59:20 on domain   3:     .27516 elapsed seconds
Timing for main: time 2016-02-06_17:59:00 on domain   4:     .34531 elapsed seconds
Timing for main: time 2016-02-06_17:59:20 on domain   4:     .32409 elapsed seconds
Timing for main: time 2016-02-06_17:59:20 on domain   2:    2.46748 elapsed seconds
  photolysis_driver: called for domain  2
Timing for main: time 2016-02-06_17:59:33 on domain   3:     .29055 elapsed seconds
Timing for main: time 2016-02-06_17:59:46 on domain   3:     .27712 elapsed seconds
  photolysis_driver: called for domain  3
Timing for main: time 2016-02-06_18:00:00 on domain   3:    1.65143 elapsed seconds
Timing for Writing wrfout_d03_2016-02-06_18:00:00 for domain        3:    1.65504 elapsed seconds
Timing for main: time 2016-02-06_17:59:40 on domain   4:     .36371 elapsed seconds
  photolysis_driver: called for domain  4
Timing for main: time 2016-02-06_18:00:00 on domain   4:    1.94583 elapsed seconds
Timing for Writing wrfout_d04_2016-02-06_18:00:00 for domain        4:    1.79951 elapsed seconds
Timing for main: time 2016-02-06_18:00:00 on domain   2:   10.64279 elapsed seconds
Timing for Writing wrfout_d02_2016-02-06_18:00:00 for domain        2:    3.06936 elapsed seconds
Timing for main: time 2016-02-06_18:00:00 on domain   1:   20.04105 elapsed seconds
Timing for Writing wrfout_d01_2016-02-06_18:00:00 for domain        1:    2.80506 elapsed seconds
 d01 2016-02-06_18:00:00 wrf: SUCCESS COMPLETE WRF
