taskid: 0 hostname: p10a51.pbm.ihost.com
  Ntasks in X  11 , ntasks in Y  20
 Setting blank km_opt entries to domain #1 values.
  --> The km_opt entry in the namelist.input is now max_domains.
 Setting blank diff_opt entries to domain #1 values.
  --> The diff_opt entry in the namelist.input is now max_domains.
 --- WARNING: traj_opt is zero, but num_traj is not zero; setting num_traj to zero.
 --- NOTE: hypsometric_opt is 2, setting adjust_heights = F
 --- NOTE: sst_update is 0, setting io_form_auxinput4 = 0 and auxinput4_interval = 0 for all domains
 --- NOTE: sst_update is 0, setting io_form_auxinput4 = 0 and auxinput4_interval = 0 for all domains
 --- NOTE: sst_update is 0, setting io_form_auxinput4 = 0 and auxinput4_interval = 0 for all domains
 --- NOTE: sst_update is 0, setting io_form_auxinput4 = 0 and auxinput4_interval = 0 for all domains
 --- NOTE: grid_fdda is 0 for domain      1, setting gfdda interval and ending time to 0 for that domain.
 --- NOTE: both grid_sfdda and pxlsm_soil_nudge are 0 for domain      1, setting sgfdda interval and ending time to 0 for that domain.
 --- NOTE: obs_nudge_opt is 0 for domain      1, setting obs nudging interval and ending time to 0 for that domain.
 --- NOTE: grid_fdda is 0 for domain      2, setting gfdda interval and ending time to 0 for that domain.
 --- NOTE: both grid_sfdda and pxlsm_soil_nudge are 0 for domain      2, setting sgfdda interval and ending time to 0 for that domain.
 --- NOTE: obs_nudge_opt is 0 for domain      2, setting obs nudging interval and ending time to 0 for that domain.
 --- NOTE: grid_fdda is 0 for domain      3, setting gfdda interval and ending time to 0 for that domain.
 --- NOTE: both grid_sfdda and pxlsm_soil_nudge are 0 for domain      3, setting sgfdda interval and ending time to 0 for that domain.
 --- NOTE: obs_nudge_opt is 0 for domain      3, setting obs nudging interval and ending time to 0 for that domain.
 --- NOTE: grid_fdda is 0 for domain      4, setting gfdda interval and ending time to 0 for that domain.
 --- NOTE: both grid_sfdda and pxlsm_soil_nudge are 0 for domain      4, setting sgfdda interval and ending time to 0 for that domain.
 --- NOTE: obs_nudge_opt is 0 for domain      4, setting obs nudging interval and ending time to 0 for that domain.
 bl_pbl_physics /= 4, implies mfshconv must be 0, resetting
 --- NOTE: num_soil_layers has been set to      4
 WRF V3.6 MODEL
  *************************************
  Parent domain
  ids,ide,jds,jde  1 271 1 181
  ims,ime,jms,jme  -4 32 -4 16
  ips,ipe,jps,jpe  1 25 1 9
  *************************************
 DYNAMICS OPTION: Eulerian Mass Coordinate
    alloc_space_field: domain  1 ,  79826632  bytes allocated
   med_initialdata_input: calling input_input
Timing for processing wrfinput file (stream 0) for domain        1:    3.91705 elapsed seconds
 INPUT LandUse = "USGS"
  LANDUSE TYPE = "USGS" FOUND 33  CATEGORIES 2  SEASONS WATER CATEGORY =  16  SNOW CATEGORY =  24
 INITIALIZE THREE Noah LSM RELATED TABLES
  LANDUSE TYPE = USGS FOUND 27  CATEGORIES
  INPUT SOIL TEXTURE CLASSIFICATION = STAS
  SOIL TEXTURE CLASSIFICATION = STAS FOUND 19  CATEGORIES
 *********************************************************************
 *             PROGRAM:WRF/CHEM V3.6 MODEL
 *                                                                   *
 *    PLEASE REPORT ANY BUGS TO WRF/CHEM HELP at                     *
 *                                                                   *
 *              wrfchemhelp.gsd@noaa.gov                             *
 *                                                                   *
 *********************************************************************
 WARNING: dust option 1 currently works only with the GOCART aerosol option.
 WARNING: sea salt option 1 currently works only with the GOCART aerosol option.
  *************************************
  Nesting domain
  ids,ide,jds,jde  1 361 1 253
  ims,ime,jms,jme  -4 45 -4 24
  ips,ipe,jps,jpe  1 33 1 13
  INTERMEDIATE domain
  ids,ide,jds,jde  74 199 47 136
  ims,ime,jms,jme  69 96 42 62
  ips,ipe,jps,jpe  72 86 45 52
  *************************************
 d01 2016-02-05_12:00:00  alloc_space_field: domain  2 ,  144557812  bytes allocated
 d01 2016-02-05_12:00:00  alloc_space_field: domain  2 ,  7406448  bytes allocated
 d01 2016-02-05_12:00:00 *** Initializing nest domain # 2 from an input file. ***
 d01 2016-02-05_12:00:00 med_initialdata_input: calling input_input
Timing for processing wrfinput file (stream 0) for domain        2:    6.84263 elapsed seconds
 INPUT LandUse = "USGS"
  LANDUSE TYPE = "USGS" FOUND 33  CATEGORIES 2  SEASONS WATER CATEGORY =  16  SNOW CATEGORY =  24
 INITIALIZE THREE Noah LSM RELATED TABLES
  LANDUSE TYPE = USGS FOUND 27  CATEGORIES
  INPUT SOIL TEXTURE CLASSIFICATION = STAS
  SOIL TEXTURE CLASSIFICATION = STAS FOUND 19  CATEGORIES
 *********************************************************************
 *             PROGRAM:WRF/CHEM V3.6 MODEL
 *                                                                   *
 *    PLEASE REPORT ANY BUGS TO WRF/CHEM HELP at                     *
 *                                                                   *
 *              wrfchemhelp.gsd@noaa.gov                             *
 *                                                                   *
 *********************************************************************
 WARNING: dust option 1 currently works only with the GOCART aerosol option.
 WARNING: sea salt option 1 currently works only with the GOCART aerosol option.
 INPUT LandUse = "USGS"
  LANDUSE TYPE = "USGS" FOUND 33  CATEGORIES 2  SEASONS WATER CATEGORY =  16  SNOW CATEGORY =  24
 INITIALIZE THREE Noah LSM RELATED TABLES
  LANDUSE TYPE = USGS FOUND 27  CATEGORIES
  INPUT SOIL TEXTURE CLASSIFICATION = STAS
  SOIL TEXTURE CLASSIFICATION = STAS FOUND 19  CATEGORIES
 *********************************************************************
 *             PROGRAM:WRF/CHEM V3.6 MODEL
 *                                                                   *
 *    PLEASE REPORT ANY BUGS TO WRF/CHEM HELP at                     *
 *                                                                   *
 *              wrfchemhelp.gsd@noaa.gov                             *
 *                                                                   *
 *********************************************************************
 WARNING: dust option 1 currently works only with the GOCART aerosol option.
 WARNING: sea salt option 1 currently works only with the GOCART aerosol option.
 INPUT LandUse = "USGS"
  LANDUSE TYPE = "USGS" FOUND 33  CATEGORIES 2  SEASONS WATER CATEGORY =  16  SNOW CATEGORY =  24
 INITIALIZE THREE Noah LSM RELATED TABLES
  LANDUSE TYPE = USGS FOUND 27  CATEGORIES
  INPUT SOIL TEXTURE CLASSIFICATION = STAS
  SOIL TEXTURE CLASSIFICATION = STAS FOUND 19  CATEGORIES
 *********************************************************************
 *             PROGRAM:WRF/CHEM V3.6 MODEL
 *                                                                   *
 *    PLEASE REPORT ANY BUGS TO WRF/CHEM HELP at                     *
 *                                                                   *
 *              wrfchemhelp.gsd@noaa.gov                             *
 *                                                                   *
 *********************************************************************
 WARNING: dust option 1 currently works only with the GOCART aerosol option.
 WARNING: sea salt option 1 currently works only with the GOCART aerosol option.
Timing for Writing wrfout_d01_2016-02-05_12:00:00 for domain        1:    1.55526 elapsed seconds
  mediation_integrate: med_read_wrf_chem_emissions: Open file wrfchemi_12z_d01
  HOURLY EMISSIONS UPDATE TIME         .0        .0
 mediation_integrate: med_read_wrf_chem_emissions: Read emissions for time 2016-02-05_12:00:00
 **WARNING** Time in input file not being checked **WARNING**
Timing for processing lateral boundary for domain        1:    3.17422 elapsed seconds
  Tile Strategy is not specified. Assuming 1D-Y
 WRF TILE   1 IS      1 IE     25 JS      1 JE      9
 WRF NUMBER OF TILES =   1
  photolysis_driver: called for domain  1
  *************************************
  Nesting domain
  ids,ide,jds,jde  1 307 1 241
  ims,ime,jms,jme  -4 39 -4 24
  ips,ipe,jps,jpe  1 28 1 12
  INTERMEDIATE domain
  ids,ide,jds,jde  124 231 35 120
  ims,ime,jms,jme  119 144 30 50
  ips,ipe,jps,jpe  122 134 33 40
  *************************************
 d02 2016-02-05_12:00:00  alloc_space_field: domain  3 ,  127728000  bytes allocated
 d02 2016-02-05_12:00:00  alloc_space_field: domain  3 ,  6877416  bytes allocated
 d02 2016-02-05_12:00:00 *** Initializing nest domain # 3 from an input file. ***
 d02 2016-02-05_12:00:00 med_initialdata_input: calling input_input
Timing for processing wrfinput file (stream 0) for domain        3:    5.09946 elapsed seconds
 INPUT LandUse = "USGS"
  LANDUSE TYPE = "USGS" FOUND 33  CATEGORIES 2  SEASONS WATER CATEGORY =  16  SNOW CATEGORY =  24
 INITIALIZE THREE Noah LSM RELATED TABLES
  LANDUSE TYPE = USGS FOUND 27  CATEGORIES
  INPUT SOIL TEXTURE CLASSIFICATION = STAS
  SOIL TEXTURE CLASSIFICATION = STAS FOUND 19  CATEGORIES
 *********************************************************************
 *             PROGRAM:WRF/CHEM V3.6 MODEL
 *                                                                   *
 *    PLEASE REPORT ANY BUGS TO WRF/CHEM HELP at                     *
 *                                                                   *
 *              wrfchemhelp.gsd@noaa.gov                             *
 *                                                                   *
 *********************************************************************
 WARNING: dust option 1 currently works only with the GOCART aerosol option.
 WARNING: sea salt option 1 currently works only with the GOCART aerosol option.
 INPUT LandUse = "USGS"
  LANDUSE TYPE = "USGS" FOUND 33  CATEGORIES 2  SEASONS WATER CATEGORY =  16  SNOW CATEGORY =  24
 INITIALIZE THREE Noah LSM RELATED TABLES
  LANDUSE TYPE = USGS FOUND 27  CATEGORIES
  INPUT SOIL TEXTURE CLASSIFICATION = STAS
  SOIL TEXTURE CLASSIFICATION = STAS FOUND 19  CATEGORIES
 *********************************************************************
 *             PROGRAM:WRF/CHEM V3.6 MODEL
 *                                                                   *
 *    PLEASE REPORT ANY BUGS TO WRF/CHEM HELP at                     *
 *                                                                   *
 *              wrfchemhelp.gsd@noaa.gov                             *
 *                                                                   *
 *********************************************************************
 WARNING: dust option 1 currently works only with the GOCART aerosol option.
 WARNING: sea salt option 1 currently works only with the GOCART aerosol option.
 INPUT LandUse = "USGS"
  LANDUSE TYPE = "USGS" FOUND 33  CATEGORIES 2  SEASONS WATER CATEGORY =  16  SNOW CATEGORY =  24
 INITIALIZE THREE Noah LSM RELATED TABLES
  LANDUSE TYPE = USGS FOUND 27  CATEGORIES
  INPUT SOIL TEXTURE CLASSIFICATION = STAS
  SOIL TEXTURE CLASSIFICATION = STAS FOUND 19  CATEGORIES
 *********************************************************************
 *             PROGRAM:WRF/CHEM V3.6 MODEL
 *                                                                   *
 *    PLEASE REPORT ANY BUGS TO WRF/CHEM HELP at                     *
 *                                                                   *
 *              wrfchemhelp.gsd@noaa.gov                             *
 *                                                                   *
 *********************************************************************
 WARNING: dust option 1 currently works only with the GOCART aerosol option.
 WARNING: sea salt option 1 currently works only with the GOCART aerosol option.
  *************************************
  Nesting domain
  ids,ide,jds,jde  1 217 1 388
  ims,ime,jms,jme  -4 30 -4 30
  ips,ipe,jps,jpe  1 20 1 20
  INTERMEDIATE domain
  ids,ide,jds,jde  225 302 83 217
  ims,ime,jms,jme  220 243 78 101
  ips,ipe,jps,jpe  223 233 81 91
  *************************************
 d02 2016-02-05_12:00:00  alloc_space_field: domain  4 ,  122709620  bytes allocated
 d02 2016-02-05_12:00:00  alloc_space_field: domain  4 ,  7255296  bytes allocated
 d02 2016-02-05_12:00:00 *** Initializing nest domain # 4 from an input file. ***
 d02 2016-02-05_12:00:00 med_initialdata_input: calling input_input
Timing for processing wrfinput file (stream 0) for domain        4:    6.13449 elapsed seconds
 INPUT LandUse = "USGS"
  LANDUSE TYPE = "USGS" FOUND 33  CATEGORIES 2  SEASONS WATER CATEGORY =  16  SNOW CATEGORY =  24
 INITIALIZE THREE Noah LSM RELATED TABLES
  LANDUSE TYPE = USGS FOUND 27  CATEGORIES
  INPUT SOIL TEXTURE CLASSIFICATION = STAS
  SOIL TEXTURE CLASSIFICATION = STAS FOUND 19  CATEGORIES
 *********************************************************************
 *             PROGRAM:WRF/CHEM V3.6 MODEL
 *                                                                   *
 *    PLEASE REPORT ANY BUGS TO WRF/CHEM HELP at                     *
 *                                                                   *
 *              wrfchemhelp.gsd@noaa.gov                             *
 *                                                                   *
 *********************************************************************
 WARNING: dust option 1 currently works only with the GOCART aerosol option.
 WARNING: sea salt option 1 currently works only with the GOCART aerosol option.
 INPUT LandUse = "USGS"
  LANDUSE TYPE = "USGS" FOUND 33  CATEGORIES 2  SEASONS WATER CATEGORY =  16  SNOW CATEGORY =  24
 INITIALIZE THREE Noah LSM RELATED TABLES
  LANDUSE TYPE = USGS FOUND 27  CATEGORIES
  INPUT SOIL TEXTURE CLASSIFICATION = STAS
  SOIL TEXTURE CLASSIFICATION = STAS FOUND 19  CATEGORIES
 *********************************************************************
 *             PROGRAM:WRF/CHEM V3.6 MODEL
 *                                                                   *
 *    PLEASE REPORT ANY BUGS TO WRF/CHEM HELP at                     *
 *                                                                   *
 *              wrfchemhelp.gsd@noaa.gov                             *
 *                                                                   *
 *********************************************************************
 WARNING: dust option 1 currently works only with the GOCART aerosol option.
 WARNING: sea salt option 1 currently works only with the GOCART aerosol option.
 INPUT LandUse = "USGS"
  LANDUSE TYPE = "USGS" FOUND 33  CATEGORIES 2  SEASONS WATER CATEGORY =  16  SNOW CATEGORY =  24
 INITIALIZE THREE Noah LSM RELATED TABLES
  LANDUSE TYPE = USGS FOUND 27  CATEGORIES
  INPUT SOIL TEXTURE CLASSIFICATION = STAS
  SOIL TEXTURE CLASSIFICATION = STAS FOUND 19  CATEGORIES
 *********************************************************************
 *             PROGRAM:WRF/CHEM V3.6 MODEL
 *                                                                   *
 *    PLEASE REPORT ANY BUGS TO WRF/CHEM HELP at                     *
 *                                                                   *
 *              wrfchemhelp.gsd@noaa.gov                             *
 *                                                                   *
 *********************************************************************
 WARNING: dust option 1 currently works only with the GOCART aerosol option.
 WARNING: sea salt option 1 currently works only with the GOCART aerosol option.
Timing for Writing wrfout_d02_2016-02-05_12:00:00 for domain        2:    2.21690 elapsed seconds
  mediation_integrate: med_read_wrf_chem_emissions: Open file wrfchemi_12z_d02
  HOURLY EMISSIONS UPDATE TIME         .0        .0
 mediation_integrate: med_read_wrf_chem_emissions: Read emissions for time 2016-02-05_12:00:00
 **WARNING** Time in input file not being checked **WARNING**
  Tile Strategy is not specified. Assuming 1D-Y
 WRF TILE   1 IS      1 IE     33 JS      1 JE     13
 WRF NUMBER OF TILES =   1
  photolysis_driver: called for domain  2
Timing for Writing wrfout_d03_2016-02-05_12:00:00 for domain        3:    2.03714 elapsed seconds
  mediation_integrate: med_read_wrf_chem_emissions: Open file wrfchemi_12z_d03
  HOURLY EMISSIONS UPDATE TIME         .0        .0
 mediation_integrate: med_read_wrf_chem_emissions: Read emissions for time 2016-02-05_12:00:00
 **WARNING** Time in input file not being checked **WARNING**
  Tile Strategy is not specified. Assuming 1D-Y
 WRF TILE   1 IS      1 IE     28 JS      1 JE     12
 WRF NUMBER OF TILES =   1
  photolysis_driver: called for domain  3
Timing for main: time 2016-02-05_12:00:13 on domain   3:    5.08637 elapsed seconds
Timing for main: time 2016-02-05_12:00:26 on domain   3:     .11367 elapsed seconds
Timing for main: time 2016-02-05_12:00:40 on domain   3:     .14470 elapsed seconds
Timing for Writing wrfout_d04_2016-02-05_12:00:00 for domain        4:    2.06727 elapsed seconds
  mediation_integrate: med_read_wrf_chem_emissions: Open file wrfchemi_12z_d04
  HOURLY EMISSIONS UPDATE TIME         .0        .0
 mediation_integrate: med_read_wrf_chem_emissions: Read emissions for time 2016-02-05_12:00:00
 **WARNING** Time in input file not being checked **WARNING**
  Tile Strategy is not specified. Assuming 1D-Y
 WRF TILE   1 IS      1 IE     20 JS      1 JE     20
 WRF NUMBER OF TILES =   1
  photolysis_driver: called for domain  4
Timing for main: time 2016-02-05_12:00:20 on domain   4:    5.09603 elapsed seconds
Timing for main: time 2016-02-05_12:00:40 on domain   4:     .14709 elapsed seconds
Timing for main: time 2016-02-05_12:00:40 on domain   2:   31.05335 elapsed seconds
Timing for main: time 2016-02-05_12:00:53 on domain   3:     .15187 elapsed seconds
Timing for main: time 2016-02-05_12:01:06 on domain   3:     .15202 elapsed seconds
Timing for main: time 2016-02-05_12:01:20 on domain   3:     .14505 elapsed seconds
Timing for main: time 2016-02-05_12:01:00 on domain   4:     .17901 elapsed seconds
Timing for main: time 2016-02-05_12:01:20 on domain   4:     .16796 elapsed seconds
Timing for main: time 2016-02-05_12:01:20 on domain   2:    1.33934 elapsed seconds
Timing for main: time 2016-02-05_12:01:33 on domain   3:     .16020 elapsed seconds
Timing for main: time 2016-02-05_12:01:46 on domain   3:     .14840 elapsed seconds
Timing for main: time 2016-02-05_12:02:00 on domain   3:     .15065 elapsed seconds
Timing for main: time 2016-02-05_12:01:40 on domain   4:     .17385 elapsed seconds
Timing for main: time 2016-02-05_12:02:00 on domain   4:     .16330 elapsed seconds
Timing for main: time 2016-02-05_12:02:00 on domain   2:    1.37763 elapsed seconds
Timing for main: time 2016-02-05_12:02:00 on domain   1:   50.52671 elapsed seconds
Timing for main: time 2016-02-05_12:02:13 on domain   3:     .14718 elapsed seconds
Timing for main: time 2016-02-05_12:02:26 on domain   3:     .14052 elapsed seconds
Timing for main: time 2016-02-05_12:02:40 on domain   3:     .13843 elapsed seconds
Timing for main: time 2016-02-05_12:02:20 on domain   4:     .17778 elapsed seconds
Timing for main: time 2016-02-05_12:02:40 on domain   4:     .18488 elapsed seconds
Timing for main: time 2016-02-05_12:02:40 on domain   2:    1.39554 elapsed seconds
Timing for main: time 2016-02-05_12:02:53 on domain   3:     .14942 elapsed seconds
Timing for main: time 2016-02-05_12:03:06 on domain   3:     .14781 elapsed seconds
Timing for main: time 2016-02-05_12:03:20 on domain   3:     .15435 elapsed seconds
Timing for main: time 2016-02-05_12:03:00 on domain   4:     .17985 elapsed seconds
Timing for main: time 2016-02-05_12:03:20 on domain   4:     .15850 elapsed seconds
Timing for main: time 2016-02-05_12:03:20 on domain   2:    1.45373 elapsed seconds
Timing for main: time 2016-02-05_12:03:33 on domain   3:     .15271 elapsed seconds
Timing for main: time 2016-02-05_12:03:46 on domain   3:     .15186 elapsed seconds
Timing for main: time 2016-02-05_12:04:00 on domain   3:     .14707 elapsed seconds
Timing for main: time 2016-02-05_12:03:40 on domain   4:     .18055 elapsed seconds
Timing for main: time 2016-02-05_12:04:00 on domain   4:     .17475 elapsed seconds
Timing for main: time 2016-02-05_12:04:00 on domain   2:    1.39175 elapsed seconds
Timing for main: time 2016-02-05_12:04:00 on domain   1:    4.53321 elapsed seconds
Timing for main: time 2016-02-05_12:04:13 on domain   3:     .15537 elapsed seconds
Timing for main: time 2016-02-05_12:04:26 on domain   3:     .14138 elapsed seconds
Timing for main: time 2016-02-05_12:04:40 on domain   3:     .14481 elapsed seconds
Timing for main: time 2016-02-05_12:04:20 on domain   4:     .17365 elapsed seconds
Timing for main: time 2016-02-05_12:04:40 on domain   4:     .17426 elapsed seconds
Timing for main: time 2016-02-05_12:04:40 on domain   2:    1.41371 elapsed seconds
Timing for main: time 2016-02-05_12:04:53 on domain   3:     .15484 elapsed seconds
Timing for main: time 2016-02-05_12:05:06 on domain   3:     .14526 elapsed seconds
Timing for main: time 2016-02-05_12:05:20 on domain   3:     .14616 elapsed seconds
Timing for main: time 2016-02-05_12:05:00 on domain   4:     .17820 elapsed seconds
Timing for main: time 2016-02-05_12:05:20 on domain   4:     .15892 elapsed seconds
Timing for main: time 2016-02-05_12:05:20 on domain   2:    1.37627 elapsed seconds
Timing for main: time 2016-02-05_12:05:33 on domain   3:     .14748 elapsed seconds
Timing for main: time 2016-02-05_12:05:46 on domain   3:     .13673 elapsed seconds
Timing for main: time 2016-02-05_12:06:00 on domain   3:     .13563 elapsed seconds
Timing for main: time 2016-02-05_12:05:40 on domain   4:     .17332 elapsed seconds
Timing for main: time 2016-02-05_12:06:00 on domain   4:     .16021 elapsed seconds
Timing for main: time 2016-02-05_12:06:00 on domain   2:    1.32050 elapsed seconds
Timing for main: time 2016-02-05_12:06:00 on domain   1:    4.42837 elapsed seconds
Timing for main: time 2016-02-05_12:06:13 on domain   3:     .14807 elapsed seconds
Timing for main: time 2016-02-05_12:06:26 on domain   3:     .13500 elapsed seconds
Timing for main: time 2016-02-05_12:06:40 on domain   3:     .13709 elapsed seconds
Timing for main: time 2016-02-05_12:06:20 on domain   4:     .17408 elapsed seconds
Timing for main: time 2016-02-05_12:06:40 on domain   4:     .16048 elapsed seconds
Timing for main: time 2016-02-05_12:06:40 on domain   2:    1.32947 elapsed seconds
Timing for main: time 2016-02-05_12:06:53 on domain   3:     .14949 elapsed seconds
Timing for main: time 2016-02-05_12:07:06 on domain   3:     .13690 elapsed seconds
Timing for main: time 2016-02-05_12:07:20 on domain   3:     .13836 elapsed seconds
Timing for main: time 2016-02-05_12:07:00 on domain   4:     .17405 elapsed seconds
Timing for main: time 2016-02-05_12:07:20 on domain   4:     .16036 elapsed seconds
Timing for main: time 2016-02-05_12:07:20 on domain   2:    1.33689 elapsed seconds
Timing for main: time 2016-02-05_12:07:33 on domain   3:     .14778 elapsed seconds
Timing for main: time 2016-02-05_12:07:46 on domain   3:     .13929 elapsed seconds
Timing for main: time 2016-02-05_12:08:00 on domain   3:     .13713 elapsed seconds
Timing for main: time 2016-02-05_12:07:40 on domain   4:     .17168 elapsed seconds
Timing for main: time 2016-02-05_12:08:00 on domain   4:     .16637 elapsed seconds
Timing for main: time 2016-02-05_12:08:00 on domain   2:    1.32715 elapsed seconds
Timing for main: time 2016-02-05_12:08:00 on domain   1:    4.28892 elapsed seconds
Timing for main: time 2016-02-05_12:08:13 on domain   3:     .14694 elapsed seconds
Timing for main: time 2016-02-05_12:08:26 on domain   3:     .13597 elapsed seconds
Timing for main: time 2016-02-05_12:08:40 on domain   3:     .13693 elapsed seconds
Timing for main: time 2016-02-05_12:08:20 on domain   4:     .17124 elapsed seconds
Timing for main: time 2016-02-05_12:08:40 on domain   4:     .15844 elapsed seconds
Timing for main: time 2016-02-05_12:08:40 on domain   2:    1.32221 elapsed seconds
Timing for main: time 2016-02-05_12:08:53 on domain   3:     .14704 elapsed seconds
Timing for main: time 2016-02-05_12:09:06 on domain   3:     .14040 elapsed seconds
Timing for main: time 2016-02-05_12:09:20 on domain   3:     .14181 elapsed seconds
Timing for main: time 2016-02-05_12:09:00 on domain   4:     .17413 elapsed seconds
Timing for main: time 2016-02-05_12:09:20 on domain   4:     .17084 elapsed seconds
Timing for main: time 2016-02-05_12:09:20 on domain   2:    1.36090 elapsed seconds
Timing for main: time 2016-02-05_12:09:33 on domain   3:     .14721 elapsed seconds
Timing for main: time 2016-02-05_12:09:46 on domain   3:     .13549 elapsed seconds
Timing for main: time 2016-02-05_12:10:00 on domain   3:     .13698 elapsed seconds
Timing for main: time 2016-02-05_12:09:40 on domain   4:     .17086 elapsed seconds
Timing for main: time 2016-02-05_12:10:00 on domain   4:     .16801 elapsed seconds
Timing for main: time 2016-02-05_12:10:00 on domain   2:    1.32471 elapsed seconds
Timing for main: time 2016-02-05_12:10:00 on domain   1:    4.30308 elapsed seconds
Timing for main: time 2016-02-05_12:10:13 on domain   3:     .15292 elapsed seconds
Timing for main: time 2016-02-05_12:10:26 on domain   3:     .13644 elapsed seconds
Timing for main: time 2016-02-05_12:10:40 on domain   3:     .13894 elapsed seconds
Timing for main: time 2016-02-05_12:10:20 on domain   4:     .17151 elapsed seconds
Timing for main: time 2016-02-05_12:10:40 on domain   4:     .16045 elapsed seconds
Timing for main: time 2016-02-05_12:10:40 on domain   2:    1.33699 elapsed seconds
Timing for main: time 2016-02-05_12:10:53 on domain   3:     .14954 elapsed seconds
Timing for main: time 2016-02-05_12:11:06 on domain   3:     .13538 elapsed seconds
Timing for main: time 2016-02-05_12:11:20 on domain   3:     .13702 elapsed seconds
Timing for main: time 2016-02-05_12:11:00 on domain   4:     .17119 elapsed seconds
Timing for main: time 2016-02-05_12:11:20 on domain   4:     .16049 elapsed seconds
Timing for main: time 2016-02-05_12:11:20 on domain   2:    1.32804 elapsed seconds
Timing for main: time 2016-02-05_12:11:33 on domain   3:     .14720 elapsed seconds
Timing for main: time 2016-02-05_12:11:46 on domain   3:     .13825 elapsed seconds
Timing for main: time 2016-02-05_12:12:00 on domain   3:     .13929 elapsed seconds
Timing for main: time 2016-02-05_12:11:40 on domain   4:     .17093 elapsed seconds
Timing for main: time 2016-02-05_12:12:00 on domain   4:     .15956 elapsed seconds
Timing for main: time 2016-02-05_12:12:00 on domain   2:    1.32080 elapsed seconds
Timing for main: time 2016-02-05_12:12:00 on domain   1:    4.28539 elapsed seconds
Timing for main: time 2016-02-05_12:12:13 on domain   3:     .14728 elapsed seconds
Timing for main: time 2016-02-05_12:12:26 on domain   3:     .13460 elapsed seconds
Timing for main: time 2016-02-05_12:12:40 on domain   3:     .13585 elapsed seconds
Timing for main: time 2016-02-05_12:12:20 on domain   4:     .16870 elapsed seconds
Timing for main: time 2016-02-05_12:12:40 on domain   4:     .16085 elapsed seconds
Timing for main: time 2016-02-05_12:12:40 on domain   2:    1.35756 elapsed seconds
Timing for main: time 2016-02-05_12:12:53 on domain   3:     .14747 elapsed seconds
Timing for main: time 2016-02-05_12:13:06 on domain   3:     .13501 elapsed seconds
Timing for main: time 2016-02-05_12:13:20 on domain   3:     .13691 elapsed seconds
Timing for main: time 2016-02-05_12:13:00 on domain   4:     .19007 elapsed seconds
Timing for main: time 2016-02-05_12:13:20 on domain   4:     .20230 elapsed seconds
Timing for main: time 2016-02-05_12:13:20 on domain   2:    1.37860 elapsed seconds
Timing for main: time 2016-02-05_12:13:33 on domain   3:     .14687 elapsed seconds
Timing for main: time 2016-02-05_12:13:46 on domain   3:     .13686 elapsed seconds
Timing for main: time 2016-02-05_12:14:00 on domain   3:     .13695 elapsed seconds
Timing for main: time 2016-02-05_12:13:40 on domain   4:     .17387 elapsed seconds
Timing for main: time 2016-02-05_12:14:00 on domain   4:     .15903 elapsed seconds
Timing for main: time 2016-02-05_12:14:00 on domain   2:    1.33389 elapsed seconds
Timing for main: time 2016-02-05_12:14:00 on domain   1:    4.36676 elapsed seconds
Timing for main: time 2016-02-05_12:14:13 on domain   3:     .14748 elapsed seconds
Timing for main: time 2016-02-05_12:14:26 on domain   3:     .13545 elapsed seconds
Timing for main: time 2016-02-05_12:14:40 on domain   3:     .13687 elapsed seconds
Timing for main: time 2016-02-05_12:14:20 on domain   4:     .17110 elapsed seconds
Timing for main: time 2016-02-05_12:14:40 on domain   4:     .16279 elapsed seconds
Timing for main: time 2016-02-05_12:14:40 on domain   2:    1.35488 elapsed seconds
Timing for main: time 2016-02-05_12:14:53 on domain   3:     .15744 elapsed seconds
Timing for main: time 2016-02-05_12:15:06 on domain   3:     .13540 elapsed seconds
Timing for main: time 2016-02-05_12:15:20 on domain   3:     .14342 elapsed seconds
Timing for main: time 2016-02-05_12:15:00 on domain   4:     .18053 elapsed seconds
Timing for main: time 2016-02-05_12:15:20 on domain   4:     .15940 elapsed seconds
Timing for main: time 2016-02-05_12:15:20 on domain   2:    1.33733 elapsed seconds
Timing for main: time 2016-02-05_12:15:33 on domain   3:     .14975 elapsed seconds
Timing for main: time 2016-02-05_12:15:46 on domain   3:     .13708 elapsed seconds
Timing for main: time 2016-02-05_12:16:00 on domain   3:     .13663 elapsed seconds
Timing for main: time 2016-02-05_12:15:40 on domain   4:     .17078 elapsed seconds
Timing for main: time 2016-02-05_12:16:00 on domain   4:     .16060 elapsed seconds
Timing for main: time 2016-02-05_12:16:00 on domain   2:    1.32851 elapsed seconds
Timing for main: time 2016-02-05_12:16:00 on domain   1:    4.34141 elapsed seconds
Timing for main: time 2016-02-05_12:16:13 on domain   3:     .14702 elapsed seconds
Timing for main: time 2016-02-05_12:16:26 on domain   3:     .14901 elapsed seconds
Timing for main: time 2016-02-05_12:16:40 on domain   3:     .13661 elapsed seconds
Timing for main: time 2016-02-05_12:16:20 on domain   4:     .17108 elapsed seconds
Timing for main: time 2016-02-05_12:16:40 on domain   4:     .16225 elapsed seconds
Timing for main: time 2016-02-05_12:16:40 on domain   2:    1.33668 elapsed seconds
Timing for main: time 2016-02-05_12:16:53 on domain   3:     .14741 elapsed seconds
Timing for main: time 2016-02-05_12:17:06 on domain   3:     .17960 elapsed seconds
Timing for main: time 2016-02-05_12:17:20 on domain   3:     .19423 elapsed seconds
Timing for main: time 2016-02-05_12:17:00 on domain   4:     .17089 elapsed seconds
Timing for main: time 2016-02-05_12:17:20 on domain   4:     .16235 elapsed seconds
Timing for main: time 2016-02-05_12:17:20 on domain   2:    1.41957 elapsed seconds
Timing for main: time 2016-02-05_12:17:33 on domain   3:     .14707 elapsed seconds
Timing for main: time 2016-02-05_12:17:46 on domain   3:     .13724 elapsed seconds
Timing for main: time 2016-02-05_12:18:00 on domain   3:     .13644 elapsed seconds
Timing for main: time 2016-02-05_12:17:40 on domain   4:     .17199 elapsed seconds
Timing for main: time 2016-02-05_12:18:00 on domain   4:     .16033 elapsed seconds
Timing for main: time 2016-02-05_12:18:00 on domain   2:    1.32674 elapsed seconds
Timing for main: time 2016-02-05_12:18:00 on domain   1:    4.39238 elapsed seconds
Timing for main: time 2016-02-05_12:18:13 on domain   3:     .14766 elapsed seconds
Timing for main: time 2016-02-05_12:18:26 on domain   3:     .13740 elapsed seconds
Timing for main: time 2016-02-05_12:18:40 on domain   3:     .13665 elapsed seconds
Timing for main: time 2016-02-05_12:18:20 on domain   4:     .17416 elapsed seconds
Timing for main: time 2016-02-05_12:18:40 on domain   4:     .15941 elapsed seconds
Timing for main: time 2016-02-05_12:18:40 on domain   2:    1.32683 elapsed seconds
Timing for main: time 2016-02-05_12:18:53 on domain   3:     .14692 elapsed seconds
Timing for main: time 2016-02-05_12:19:06 on domain   3:     .13682 elapsed seconds
Timing for main: time 2016-02-05_12:19:20 on domain   3:     .13744 elapsed seconds
Timing for main: time 2016-02-05_12:19:00 on domain   4:     .17103 elapsed seconds
Timing for main: time 2016-02-05_12:19:20 on domain   4:     .16200 elapsed seconds
Timing for main: time 2016-02-05_12:19:20 on domain   2:    1.32024 elapsed seconds
Timing for main: time 2016-02-05_12:19:33 on domain   3:     .14685 elapsed seconds
Timing for main: time 2016-02-05_12:19:46 on domain   3:     .13509 elapsed seconds
Timing for main: time 2016-02-05_12:20:00 on domain   3:     .13692 elapsed seconds
Timing for main: time 2016-02-05_12:19:40 on domain   4:     .17090 elapsed seconds
Timing for main: time 2016-02-05_12:20:00 on domain   4:     .16801 elapsed seconds
Timing for main: time 2016-02-05_12:20:00 on domain   2:    1.33538 elapsed seconds
Timing for main: time 2016-02-05_12:20:00 on domain   1:    4.30354 elapsed seconds
Timing for main: time 2016-02-05_12:20:13 on domain   3:     .14737 elapsed seconds
Timing for main: time 2016-02-05_12:20:26 on domain   3:     .14231 elapsed seconds
Timing for main: time 2016-02-05_12:20:40 on domain   3:     .13688 elapsed seconds
Timing for main: time 2016-02-05_12:20:20 on domain   4:     .17351 elapsed seconds
Timing for main: time 2016-02-05_12:20:40 on domain   4:     .15984 elapsed seconds
Timing for main: time 2016-02-05_12:20:40 on domain   2:    1.33462 elapsed seconds
Timing for main: time 2016-02-05_12:20:53 on domain   3:     .14789 elapsed seconds
Timing for main: time 2016-02-05_12:21:06 on domain   3:     .13645 elapsed seconds
Timing for main: time 2016-02-05_12:21:20 on domain   3:     .13672 elapsed seconds
Timing for main: time 2016-02-05_12:21:00 on domain   4:     .17113 elapsed seconds
Timing for main: time 2016-02-05_12:21:20 on domain   4:     .16387 elapsed seconds
Timing for main: time 2016-02-05_12:21:20 on domain   2:    1.33177 elapsed seconds
Timing for main: time 2016-02-05_12:21:33 on domain   3:     .14741 elapsed seconds
Timing for main: time 2016-02-05_12:21:46 on domain   3:     .13547 elapsed seconds
Timing for main: time 2016-02-05_12:22:00 on domain   3:     .13689 elapsed seconds
Timing for main: time 2016-02-05_12:21:40 on domain   4:     .16842 elapsed seconds
Timing for main: time 2016-02-05_12:22:00 on domain   4:     .15701 elapsed seconds
Timing for main: time 2016-02-05_12:22:00 on domain   2:    1.33596 elapsed seconds
Timing for main: time 2016-02-05_12:22:00 on domain   1:    4.29791 elapsed seconds
Timing for main: time 2016-02-05_12:22:13 on domain   3:     .14742 elapsed seconds
Timing for main: time 2016-02-05_12:22:26 on domain   3:     .13703 elapsed seconds
Timing for main: time 2016-02-05_12:22:40 on domain   3:     .13551 elapsed seconds
Timing for main: time 2016-02-05_12:22:20 on domain   4:     .17116 elapsed seconds
Timing for main: time 2016-02-05_12:22:40 on domain   4:     .16145 elapsed seconds
Timing for main: time 2016-02-05_12:22:40 on domain   2:    1.32221 elapsed seconds
Timing for main: time 2016-02-05_12:22:53 on domain   3:     .14741 elapsed seconds
Timing for main: time 2016-02-05_12:23:06 on domain   3:     .13703 elapsed seconds
Timing for main: time 2016-02-05_12:23:20 on domain   3:     .13916 elapsed seconds
Timing for main: time 2016-02-05_12:23:00 on domain   4:     .17131 elapsed seconds
Timing for main: time 2016-02-05_12:23:20 on domain   4:     .23034 elapsed seconds
Timing for main: time 2016-02-05_12:23:20 on domain   2:    1.38945 elapsed seconds
Timing for main: time 2016-02-05_12:23:33 on domain   3:     .14753 elapsed seconds
Timing for main: time 2016-02-05_12:23:46 on domain   3:     .13659 elapsed seconds
Timing for main: time 2016-02-05_12:24:00 on domain   3:     .13728 elapsed seconds
Timing for main: time 2016-02-05_12:23:40 on domain   4:     .17114 elapsed seconds
Timing for main: time 2016-02-05_12:24:00 on domain   4:     .16033 elapsed seconds
Timing for main: time 2016-02-05_12:24:00 on domain   2:    1.35043 elapsed seconds
Timing for main: time 2016-02-05_12:24:00 on domain   1:    4.37114 elapsed seconds
Timing for main: time 2016-02-05_12:24:13 on domain   3:     .14876 elapsed seconds
Timing for main: time 2016-02-05_12:24:26 on domain   3:     .13376 elapsed seconds
Timing for main: time 2016-02-05_12:24:40 on domain   3:     .13666 elapsed seconds
Timing for main: time 2016-02-05_12:24:20 on domain   4:     .17081 elapsed seconds
Timing for main: time 2016-02-05_12:24:40 on domain   4:     .16051 elapsed seconds
Timing for main: time 2016-02-05_12:24:40 on domain   2:    1.32034 elapsed seconds
Timing for main: time 2016-02-05_12:24:53 on domain   3:     .14743 elapsed seconds
Timing for main: time 2016-02-05_12:25:06 on domain   3:     .13602 elapsed seconds
Timing for main: time 2016-02-05_12:25:20 on domain   3:     .13907 elapsed seconds
Timing for main: time 2016-02-05_12:25:00 on domain   4:     .17982 elapsed seconds
Timing for main: time 2016-02-05_12:25:20 on domain   4:     .15976 elapsed seconds
Timing for main: time 2016-02-05_12:25:20 on domain   2:    1.33992 elapsed seconds
Timing for main: time 2016-02-05_12:25:33 on domain   3:     .15318 elapsed seconds
Timing for main: time 2016-02-05_12:25:46 on domain   3:     .13731 elapsed seconds
Timing for main: time 2016-02-05_12:26:00 on domain   3:     .13721 elapsed seconds
Timing for main: time 2016-02-05_12:25:40 on domain   4:     .22636 elapsed seconds
Timing for main: time 2016-02-05_12:26:00 on domain   4:     .19678 elapsed seconds
Timing for main: time 2016-02-05_12:26:00 on domain   2:    1.41429 elapsed seconds
Timing for main: time 2016-02-05_12:26:00 on domain   1:    4.37152 elapsed seconds
Timing for main: time 2016-02-05_12:26:13 on domain   3:     .14661 elapsed seconds
Timing for main: time 2016-02-05_12:26:26 on domain   3:     .13563 elapsed seconds
Timing for main: time 2016-02-05_12:26:40 on domain   3:     .13725 elapsed seconds
Timing for main: time 2016-02-05_12:26:20 on domain   4:     .17169 elapsed seconds
Timing for main: time 2016-02-05_12:26:40 on domain   4:     .16195 elapsed seconds
Timing for main: time 2016-02-05_12:26:40 on domain   2:    1.34284 elapsed seconds
Timing for main: time 2016-02-05_12:26:53 on domain   3:     .14720 elapsed seconds
Timing for main: time 2016-02-05_12:27:06 on domain   3:     .13752 elapsed seconds
Timing for main: time 2016-02-05_12:27:20 on domain   3:     .13834 elapsed seconds
Timing for main: time 2016-02-05_12:27:00 on domain   4:     .17067 elapsed seconds
Timing for main: time 2016-02-05_12:27:20 on domain   4:     .15949 elapsed seconds
Timing for main: time 2016-02-05_12:27:20 on domain   2:    1.31921 elapsed seconds
Timing for main: time 2016-02-05_12:27:33 on domain   3:     .15815 elapsed seconds
Timing for main: time 2016-02-05_12:27:46 on domain   3:     .13823 elapsed seconds
Timing for main: time 2016-02-05_12:28:00 on domain   3:     .13588 elapsed seconds
Timing for main: time 2016-02-05_12:27:40 on domain   4:     .17090 elapsed seconds
Timing for main: time 2016-02-05_12:28:00 on domain   4:     .16099 elapsed seconds
Timing for main: time 2016-02-05_12:28:00 on domain   2:    1.33344 elapsed seconds
Timing for main: time 2016-02-05_12:28:00 on domain   1:    4.29168 elapsed seconds
  photolysis_driver: called for domain  1
Timing for main: time 2016-02-05_12:28:13 on domain   3:     .14856 elapsed seconds
Timing for main: time 2016-02-05_12:28:26 on domain   3:     .13990 elapsed seconds
Timing for main: time 2016-02-05_12:28:40 on domain   3:     .13786 elapsed seconds
Timing for main: time 2016-02-05_12:28:20 on domain   4:     .17143 elapsed seconds
Timing for main: time 2016-02-05_12:28:40 on domain   4:     .16088 elapsed seconds
Timing for main: time 2016-02-05_12:28:40 on domain   2:    1.32693 elapsed seconds
Timing for main: time 2016-02-05_12:28:53 on domain   3:     .14737 elapsed seconds
Timing for main: time 2016-02-05_12:29:06 on domain   3:     .13914 elapsed seconds
Timing for main: time 2016-02-05_12:29:20 on domain   3:     .13727 elapsed seconds
Timing for main: time 2016-02-05_12:29:00 on domain   4:     .17117 elapsed seconds
Timing for main: time 2016-02-05_12:29:20 on domain   4:     .16288 elapsed seconds
Timing for main: time 2016-02-05_12:29:20 on domain   2:    1.33249 elapsed seconds
  photolysis_driver: called for domain  2
Timing for main: time 2016-02-05_12:29:33 on domain   3:     .14928 elapsed seconds
Timing for main: time 2016-02-05_12:29:46 on domain   3:     .13653 elapsed seconds
  photolysis_driver: called for domain  3
Timing for main: time 2016-02-05_12:30:00 on domain   3:     .77126 elapsed seconds
Timing for main: time 2016-02-05_12:29:40 on domain   4:     .17337 elapsed seconds
  photolysis_driver: called for domain  4
Timing for main: time 2016-02-05_12:30:00 on domain   4:     .91230 elapsed seconds
Timing for main: time 2016-02-05_12:30:00 on domain   2:    3.49272 elapsed seconds
Timing for main: time 2016-02-05_12:30:00 on domain   1:    6.93059 elapsed seconds
Timing for main: time 2016-02-05_12:30:13 on domain   3:     .27028 elapsed seconds
Timing for main: time 2016-02-05_12:30:26 on domain   3:     .14056 elapsed seconds
Timing for main: time 2016-02-05_12:30:40 on domain   3:     .14241 elapsed seconds
Timing for main: time 2016-02-05_12:30:20 on domain   4:     .31728 elapsed seconds
Timing for main: time 2016-02-05_12:30:40 on domain   4:     .15815 elapsed seconds
Timing for main: time 2016-02-05_12:30:40 on domain   2:    1.76505 elapsed seconds
Timing for main: time 2016-02-05_12:30:53 on domain   3:     .14739 elapsed seconds
Timing for main: time 2016-02-05_12:31:06 on domain   3:     .13789 elapsed seconds
Timing for main: time 2016-02-05_12:31:20 on domain   3:     .13718 elapsed seconds
Timing for main: time 2016-02-05_12:31:00 on domain   4:     .16996 elapsed seconds
Timing for main: time 2016-02-05_12:31:20 on domain   4:     .16826 elapsed seconds
Timing for main: time 2016-02-05_12:31:20 on domain   2:    1.32510 elapsed seconds
Timing for main: time 2016-02-05_12:31:33 on domain   3:     .14729 elapsed seconds
Timing for main: time 2016-02-05_12:31:46 on domain   3:     .13531 elapsed seconds
Timing for main: time 2016-02-05_12:32:00 on domain   3:     .13964 elapsed seconds
Timing for main: time 2016-02-05_12:31:40 on domain   4:     .17044 elapsed seconds
Timing for main: time 2016-02-05_12:32:00 on domain   4:     .16106 elapsed seconds
Timing for main: time 2016-02-05_12:32:00 on domain   2:    1.33140 elapsed seconds
Timing for main: time 2016-02-05_12:32:00 on domain   1:    4.82847 elapsed seconds
Timing for main: time 2016-02-05_12:32:13 on domain   3:     .14664 elapsed seconds
Timing for main: time 2016-02-05_12:32:26 on domain   3:     .13146 elapsed seconds
Timing for main: time 2016-02-05_12:32:40 on domain   3:     .13467 elapsed seconds
Timing for main: time 2016-02-05_12:32:20 on domain   4:     .17036 elapsed seconds
Timing for main: time 2016-02-05_12:32:40 on domain   4:     .15890 elapsed seconds
Timing for main: time 2016-02-05_12:32:40 on domain   2:    1.33168 elapsed seconds
Timing for main: time 2016-02-05_12:32:53 on domain   3:     .14661 elapsed seconds
Timing for main: time 2016-02-05_12:33:06 on domain   3:     .13547 elapsed seconds
Timing for main: time 2016-02-05_12:33:20 on domain   3:     .13759 elapsed seconds
Timing for main: time 2016-02-05_12:33:00 on domain   4:     .17052 elapsed seconds
Timing for main: time 2016-02-05_12:33:20 on domain   4:     .16174 elapsed seconds
Timing for main: time 2016-02-05_12:33:20 on domain   2:    1.31764 elapsed seconds
Timing for main: time 2016-02-05_12:33:33 on domain   3:     .14629 elapsed seconds
Timing for main: time 2016-02-05_12:33:46 on domain   3:     .13593 elapsed seconds
Timing for main: time 2016-02-05_12:34:00 on domain   3:     .13587 elapsed seconds
Timing for main: time 2016-02-05_12:33:40 on domain   4:     .20218 elapsed seconds
Timing for main: time 2016-02-05_12:34:00 on domain   4:     .18410 elapsed seconds
Timing for main: time 2016-02-05_12:34:00 on domain   2:    1.37074 elapsed seconds
Timing for main: time 2016-02-05_12:34:00 on domain   1:    4.31683 elapsed seconds
Timing for main: time 2016-02-05_12:34:13 on domain   3:     .14738 elapsed seconds
Timing for main: time 2016-02-05_12:34:26 on domain   3:     .13576 elapsed seconds
Timing for main: time 2016-02-05_12:34:40 on domain   3:     .13576 elapsed seconds
Timing for main: time 2016-02-05_12:34:20 on domain   4:     .17106 elapsed seconds
Timing for main: time 2016-02-05_12:34:40 on domain   4:     .16018 elapsed seconds
Timing for main: time 2016-02-05_12:34:40 on domain   2:    1.31812 elapsed seconds
Timing for main: time 2016-02-05_12:34:53 on domain   3:     .14642 elapsed seconds
Timing for main: time 2016-02-05_12:35:06 on domain   3:     .13387 elapsed seconds
Timing for main: time 2016-02-05_12:35:20 on domain   3:     .13608 elapsed seconds
Timing for main: time 2016-02-05_12:35:00 on domain   4:     .17760 elapsed seconds
Timing for main: time 2016-02-05_12:35:20 on domain   4:     .15905 elapsed seconds
Timing for main: time 2016-02-05_12:35:20 on domain   2:    1.31916 elapsed seconds
Timing for main: time 2016-02-05_12:35:33 on domain   3:     .14682 elapsed seconds
Timing for main: time 2016-02-05_12:35:46 on domain   3:     .14114 elapsed seconds
Timing for main: time 2016-02-05_12:36:00 on domain   3:     .13615 elapsed seconds
Timing for main: time 2016-02-05_12:35:40 on domain   4:     .17020 elapsed seconds
Timing for main: time 2016-02-05_12:36:00 on domain   4:     .15825 elapsed seconds
Timing for main: time 2016-02-05_12:36:00 on domain   2:    1.32051 elapsed seconds
Timing for main: time 2016-02-05_12:36:00 on domain   1:    4.25919 elapsed seconds
Timing for main: time 2016-02-05_12:36:13 on domain   3:     .14625 elapsed seconds
Timing for main: time 2016-02-05_12:36:26 on domain   3:     .13524 elapsed seconds
Timing for main: time 2016-02-05_12:36:40 on domain   3:     .13619 elapsed seconds
Timing for main: time 2016-02-05_12:36:20 on domain   4:     .17033 elapsed seconds
Timing for main: time 2016-02-05_12:36:40 on domain   4:     .16022 elapsed seconds
Timing for main: time 2016-02-05_12:36:40 on domain   2:    1.31943 elapsed seconds
Timing for main: time 2016-02-05_12:36:53 on domain   3:     .14602 elapsed seconds
Timing for main: time 2016-02-05_12:37:06 on domain   3:     .13592 elapsed seconds
Timing for main: time 2016-02-05_12:37:20 on domain   3:     .13544 elapsed seconds
Timing for main: time 2016-02-05_12:37:00 on domain   4:     .17266 elapsed seconds
Timing for main: time 2016-02-05_12:37:20 on domain   4:     .15861 elapsed seconds
Timing for main: time 2016-02-05_12:37:20 on domain   2:    1.32109 elapsed seconds
Timing for main: time 2016-02-05_12:37:33 on domain   3:     .14670 elapsed seconds
Timing for main: time 2016-02-05_12:37:46 on domain   3:     .13622 elapsed seconds
Timing for main: time 2016-02-05_12:38:00 on domain   3:     .13745 elapsed seconds
Timing for main: time 2016-02-05_12:37:40 on domain   4:     .17013 elapsed seconds
Timing for main: time 2016-02-05_12:38:00 on domain   4:     .16277 elapsed seconds
Timing for main: time 2016-02-05_12:38:00 on domain   2:    1.31574 elapsed seconds
Timing for main: time 2016-02-05_12:38:00 on domain   1:    4.26085 elapsed seconds
Timing for main: time 2016-02-05_12:38:13 on domain   3:     .14585 elapsed seconds
Timing for main: time 2016-02-05_12:38:26 on domain   3:     .13459 elapsed seconds
Timing for main: time 2016-02-05_12:38:40 on domain   3:     .13993 elapsed seconds
Timing for main: time 2016-02-05_12:38:20 on domain   4:     .17217 elapsed seconds
Timing for main: time 2016-02-05_12:38:40 on domain   4:     .16097 elapsed seconds
Timing for main: time 2016-02-05_12:38:40 on domain   2:    1.32397 elapsed seconds
Timing for main: time 2016-02-05_12:38:53 on domain   3:     .14820 elapsed seconds
Timing for main: time 2016-02-05_12:39:06 on domain   3:     .13508 elapsed seconds
Timing for main: time 2016-02-05_12:39:20 on domain   3:     .13575 elapsed seconds
Timing for main: time 2016-02-05_12:39:00 on domain   4:     .17037 elapsed seconds
Timing for main: time 2016-02-05_12:39:20 on domain   4:     .15789 elapsed seconds
Timing for main: time 2016-02-05_12:39:20 on domain   2:    1.33940 elapsed seconds
Timing for main: time 2016-02-05_12:39:33 on domain   3:     .15132 elapsed seconds
Timing for main: time 2016-02-05_12:39:46 on domain   3:     .13109 elapsed seconds
Timing for main: time 2016-02-05_12:40:00 on domain   3:     .13426 elapsed seconds
Timing for main: time 2016-02-05_12:39:40 on domain   4:     .17050 elapsed seconds
Timing for main: time 2016-02-05_12:40:00 on domain   4:     .16661 elapsed seconds
Timing for main: time 2016-02-05_12:40:00 on domain   2:    1.34361 elapsed seconds
Timing for main: time 2016-02-05_12:40:00 on domain   1:    4.30697 elapsed seconds
Timing for main: time 2016-02-05_12:40:13 on domain   3:     .19477 elapsed seconds
Timing for main: time 2016-02-05_12:40:26 on domain   3:     .14926 elapsed seconds
Timing for main: time 2016-02-05_12:40:40 on domain   3:     .13704 elapsed seconds
Timing for main: time 2016-02-05_12:40:20 on domain   4:     .17042 elapsed seconds
Timing for main: time 2016-02-05_12:40:40 on domain   4:     .15944 elapsed seconds
Timing for main: time 2016-02-05_12:40:40 on domain   2:    1.38077 elapsed seconds
Timing for main: time 2016-02-05_12:40:53 on domain   3:     .15265 elapsed seconds
Timing for main: time 2016-02-05_12:41:06 on domain   3:     .13969 elapsed seconds
Timing for main: time 2016-02-05_12:41:20 on domain   3:     .13251 elapsed seconds
Timing for main: time 2016-02-05_12:41:00 on domain   4:     .17022 elapsed seconds
Timing for main: time 2016-02-05_12:41:20 on domain   4:     .15972 elapsed seconds
Timing for main: time 2016-02-05_12:41:20 on domain   2:    1.32293 elapsed seconds
Timing for main: time 2016-02-05_12:41:33 on domain   3:     .14931 elapsed seconds
Timing for main: time 2016-02-05_12:41:46 on domain   3:     .15315 elapsed seconds
Timing for main: time 2016-02-05_12:42:00 on domain   3:     .14263 elapsed seconds
Timing for main: time 2016-02-05_12:41:40 on domain   4:     .17026 elapsed seconds
Timing for main: time 2016-02-05_12:42:00 on domain   4:     .16108 elapsed seconds
Timing for main: time 2016-02-05_12:42:00 on domain   2:    1.35271 elapsed seconds
Timing for main: time 2016-02-05_12:42:00 on domain   1:    4.38274 elapsed seconds
Timing for main: time 2016-02-05_12:42:13 on domain   3:     .14610 elapsed seconds
Timing for main: time 2016-02-05_12:42:26 on domain   3:     .14041 elapsed seconds
Timing for main: time 2016-02-05_12:42:40 on domain   3:     .14212 elapsed seconds
Timing for main: time 2016-02-05_12:42:20 on domain   4:     .17311 elapsed seconds
Timing for main: time 2016-02-05_12:42:40 on domain   4:     .15919 elapsed seconds
Timing for main: time 2016-02-05_12:42:40 on domain   2:    1.33867 elapsed seconds
Timing for main: time 2016-02-05_12:42:53 on domain   3:     .14681 elapsed seconds
Timing for main: time 2016-02-05_12:43:06 on domain   3:     .13722 elapsed seconds
Timing for main: time 2016-02-05_12:43:20 on domain   3:     .14467 elapsed seconds
Timing for main: time 2016-02-05_12:43:00 on domain   4:     .17019 elapsed seconds
Timing for main: time 2016-02-05_12:43:20 on domain   4:     .15976 elapsed seconds
Timing for main: time 2016-02-05_12:43:20 on domain   2:    1.32263 elapsed seconds
Timing for main: time 2016-02-05_12:43:33 on domain   3:     .14608 elapsed seconds
Timing for main: time 2016-02-05_12:43:46 on domain   3:     .13392 elapsed seconds
Timing for main: time 2016-02-05_12:44:00 on domain   3:     .13650 elapsed seconds
Timing for main: time 2016-02-05_12:43:40 on domain   4:     .17192 elapsed seconds
Timing for main: time 2016-02-05_12:44:00 on domain   4:     .16462 elapsed seconds
Timing for main: time 2016-02-05_12:44:00 on domain   2:    1.31835 elapsed seconds
Timing for main: time 2016-02-05_12:44:00 on domain   1:    4.27472 elapsed seconds
Timing for main: time 2016-02-05_12:44:13 on domain   3:     .14639 elapsed seconds
Timing for main: time 2016-02-05_12:44:26 on domain   3:     .13645 elapsed seconds
Timing for main: time 2016-02-05_12:44:40 on domain   3:     .14360 elapsed seconds
Timing for main: time 2016-02-05_12:44:20 on domain   4:     .17052 elapsed seconds
Timing for main: time 2016-02-05_12:44:40 on domain   4:     .15967 elapsed seconds
Timing for main: time 2016-02-05_12:44:40 on domain   2:    1.33938 elapsed seconds
Timing for main: time 2016-02-05_12:44:53 on domain   3:     .14644 elapsed seconds
Timing for main: time 2016-02-05_12:45:06 on domain   3:     .13938 elapsed seconds
Timing for main: time 2016-02-05_12:45:20 on domain   3:     .13540 elapsed seconds
Timing for main: time 2016-02-05_12:45:00 on domain   4:     .18233 elapsed seconds
Timing for main: time 2016-02-05_12:45:20 on domain   4:     .16710 elapsed seconds
Timing for main: time 2016-02-05_12:45:20 on domain   2:    1.33570 elapsed seconds
Timing for main: time 2016-02-05_12:45:33 on domain   3:     .14656 elapsed seconds
Timing for main: time 2016-02-05_12:45:46 on domain   3:     .13578 elapsed seconds
Timing for main: time 2016-02-05_12:46:00 on domain   3:     .14309 elapsed seconds
Timing for main: time 2016-02-05_12:45:40 on domain   4:     .17283 elapsed seconds
Timing for main: time 2016-02-05_12:46:00 on domain   4:     .16399 elapsed seconds
Timing for main: time 2016-02-05_12:46:00 on domain   2:    1.32560 elapsed seconds
Timing for main: time 2016-02-05_12:46:00 on domain   1:    4.29619 elapsed seconds
Timing for main: time 2016-02-05_12:46:13 on domain   3:     .14790 elapsed seconds
Timing for main: time 2016-02-05_12:46:26 on domain   3:     .13409 elapsed seconds
Timing for main: time 2016-02-05_12:46:40 on domain   3:     .13510 elapsed seconds
Timing for main: time 2016-02-05_12:46:20 on domain   4:     .17162 elapsed seconds
Timing for main: time 2016-02-05_12:46:40 on domain   4:     .15936 elapsed seconds
Timing for main: time 2016-02-05_12:46:40 on domain   2:    1.31724 elapsed seconds
Timing for main: time 2016-02-05_12:46:53 on domain   3:     .14628 elapsed seconds
Timing for main: time 2016-02-05_12:47:06 on domain   3:     .13724 elapsed seconds
Timing for main: time 2016-02-05_12:47:20 on domain   3:     .14989 elapsed seconds
Timing for main: time 2016-02-05_12:47:00 on domain   4:     .17076 elapsed seconds
Timing for main: time 2016-02-05_12:47:20 on domain   4:     .16884 elapsed seconds
Timing for main: time 2016-02-05_12:47:20 on domain   2:    1.33794 elapsed seconds
Timing for main: time 2016-02-05_12:47:33 on domain   3:     .14646 elapsed seconds
Timing for main: time 2016-02-05_12:47:46 on domain   3:     .13531 elapsed seconds
Timing for main: time 2016-02-05_12:48:00 on domain   3:     .13953 elapsed seconds
Timing for main: time 2016-02-05_12:47:40 on domain   4:     .17263 elapsed seconds
Timing for main: time 2016-02-05_12:48:00 on domain   4:     .15809 elapsed seconds
Timing for main: time 2016-02-05_12:48:00 on domain   2:    1.32638 elapsed seconds
Timing for main: time 2016-02-05_12:48:00 on domain   1:    4.28291 elapsed seconds
Timing for main: time 2016-02-05_12:48:13 on domain   3:     .14659 elapsed seconds
Timing for main: time 2016-02-05_12:48:26 on domain   3:     .13407 elapsed seconds
Timing for main: time 2016-02-05_12:48:40 on domain   3:     .13552 elapsed seconds
Timing for main: time 2016-02-05_12:48:20 on domain   4:     .17120 elapsed seconds
Timing for main: time 2016-02-05_12:48:40 on domain   4:     .15984 elapsed seconds
Timing for main: time 2016-02-05_12:48:40 on domain   2:    1.31631 elapsed seconds
Timing for main: time 2016-02-05_12:48:53 on domain   3:     .14644 elapsed seconds
Timing for main: time 2016-02-05_12:49:06 on domain   3:     .13545 elapsed seconds
Timing for main: time 2016-02-05_12:49:20 on domain   3:     .13585 elapsed seconds
Timing for main: time 2016-02-05_12:49:00 on domain   4:     .17069 elapsed seconds
Timing for main: time 2016-02-05_12:49:20 on domain   4:     .15816 elapsed seconds
Timing for main: time 2016-02-05_12:49:20 on domain   2:    1.31853 elapsed seconds
Timing for main: time 2016-02-05_12:49:33 on domain   3:     .14722 elapsed seconds
Timing for main: time 2016-02-05_12:49:46 on domain   3:     .13483 elapsed seconds
Timing for main: time 2016-02-05_12:50:00 on domain   3:     .13771 elapsed seconds
Timing for main: time 2016-02-05_12:49:40 on domain   4:     .17083 elapsed seconds
Timing for main: time 2016-02-05_12:50:00 on domain   4:     .16769 elapsed seconds
Timing for main: time 2016-02-05_12:50:00 on domain   2:    1.32221 elapsed seconds
Timing for main: time 2016-02-05_12:50:00 on domain   1:    4.25279 elapsed seconds
Timing for main: time 2016-02-05_12:50:13 on domain   3:     .14727 elapsed seconds
Timing for main: time 2016-02-05_12:50:26 on domain   3:     .13345 elapsed seconds
Timing for main: time 2016-02-05_12:50:40 on domain   3:     .13578 elapsed seconds
Timing for main: time 2016-02-05_12:50:20 on domain   4:     .17038 elapsed seconds
Timing for main: time 2016-02-05_12:50:40 on domain   4:     .16001 elapsed seconds
Timing for main: time 2016-02-05_12:50:40 on domain   2:    1.31598 elapsed seconds
Timing for main: time 2016-02-05_12:50:53 on domain   3:     .14612 elapsed seconds
Timing for main: time 2016-02-05_12:51:06 on domain   3:     .14106 elapsed seconds
Timing for main: time 2016-02-05_12:51:20 on domain   3:     .13521 elapsed seconds
Timing for main: time 2016-02-05_12:51:00 on domain   4:     .17131 elapsed seconds
Timing for main: time 2016-02-05_12:51:20 on domain   4:     .15932 elapsed seconds
Timing for main: time 2016-02-05_12:51:20 on domain   2:    1.31673 elapsed seconds
Timing for main: time 2016-02-05_12:51:33 on domain   3:     .14668 elapsed seconds
Timing for main: time 2016-02-05_12:51:46 on domain   3:     .14654 elapsed seconds
Timing for main: time 2016-02-05_12:52:00 on domain   3:     .13434 elapsed seconds
Timing for main: time 2016-02-05_12:51:40 on domain   4:     .16989 elapsed seconds
Timing for main: time 2016-02-05_12:52:00 on domain   4:     .16013 elapsed seconds
Timing for main: time 2016-02-05_12:52:00 on domain   2:    1.32081 elapsed seconds
Timing for main: time 2016-02-05_12:52:00 on domain   1:    4.25008 elapsed seconds
Timing for main: time 2016-02-05_12:52:13 on domain   3:     .14646 elapsed seconds
Timing for main: time 2016-02-05_12:52:26 on domain   3:     .13498 elapsed seconds
Timing for main: time 2016-02-05_12:52:40 on domain   3:     .13629 elapsed seconds
Timing for main: time 2016-02-05_12:52:20 on domain   4:     .17253 elapsed seconds
Timing for main: time 2016-02-05_12:52:40 on domain   4:     .16135 elapsed seconds
Timing for main: time 2016-02-05_12:52:40 on domain   2:    1.32112 elapsed seconds
Timing for main: time 2016-02-05_12:52:53 on domain   3:     .14647 elapsed seconds
Timing for main: time 2016-02-05_12:53:06 on domain   3:     .13507 elapsed seconds
Timing for main: time 2016-02-05_12:53:20 on domain   3:     .15085 elapsed seconds
Timing for main: time 2016-02-05_12:53:00 on domain   4:     .17056 elapsed seconds
Timing for main: time 2016-02-05_12:53:20 on domain   4:     .15980 elapsed seconds
Timing for main: time 2016-02-05_12:53:20 on domain   2:    1.33040 elapsed seconds
Timing for main: time 2016-02-05_12:53:33 on domain   3:     .14976 elapsed seconds
Timing for main: time 2016-02-05_12:53:46 on domain   3:     .13398 elapsed seconds
Timing for main: time 2016-02-05_12:54:00 on domain   3:     .13560 elapsed seconds
Timing for main: time 2016-02-05_12:53:40 on domain   4:     .17080 elapsed seconds
Timing for main: time 2016-02-05_12:54:00 on domain   4:     .15991 elapsed seconds
Timing for main: time 2016-02-05_12:54:00 on domain   2:    1.31315 elapsed seconds
Timing for main: time 2016-02-05_12:54:00 on domain   1:    4.26691 elapsed seconds
Timing for main: time 2016-02-05_12:54:13 on domain   3:     .14634 elapsed seconds
Timing for main: time 2016-02-05_12:54:26 on domain   3:     .13373 elapsed seconds
Timing for main: time 2016-02-05_12:54:40 on domain   3:     .13821 elapsed seconds
Timing for main: time 2016-02-05_12:54:20 on domain   4:     .17072 elapsed seconds
Timing for main: time 2016-02-05_12:54:40 on domain   4:     .15820 elapsed seconds
Timing for main: time 2016-02-05_12:54:40 on domain   2:    1.32298 elapsed seconds
Timing for main: time 2016-02-05_12:54:53 on domain   3:     .14644 elapsed seconds
Timing for main: time 2016-02-05_12:55:06 on domain   3:     .13726 elapsed seconds
Timing for main: time 2016-02-05_12:55:20 on domain   3:     .13582 elapsed seconds
Timing for main: time 2016-02-05_12:55:00 on domain   4:     .17804 elapsed seconds
Timing for main: time 2016-02-05_12:55:20 on domain   4:     .24051 elapsed seconds
Timing for main: time 2016-02-05_12:55:20 on domain   2:    1.40224 elapsed seconds
Timing for main: time 2016-02-05_12:55:33 on domain   3:     .14642 elapsed seconds
Timing for main: time 2016-02-05_12:55:46 on domain   3:     .13424 elapsed seconds
Timing for main: time 2016-02-05_12:56:00 on domain   3:     .13765 elapsed seconds
Timing for main: time 2016-02-05_12:55:40 on domain   4:     .18794 elapsed seconds
Timing for main: time 2016-02-05_12:56:00 on domain   4:     .20372 elapsed seconds
Timing for main: time 2016-02-05_12:56:00 on domain   2:    1.44189 elapsed seconds
Timing for main: time 2016-02-05_12:56:00 on domain   1:    4.46375 elapsed seconds
Timing for main: time 2016-02-05_12:56:13 on domain   3:     .15226 elapsed seconds
Timing for main: time 2016-02-05_12:56:26 on domain   3:     .14459 elapsed seconds
Timing for main: time 2016-02-05_12:56:40 on domain   3:     .13553 elapsed seconds
Timing for main: time 2016-02-05_12:56:20 on domain   4:     .17085 elapsed seconds
Timing for main: time 2016-02-05_12:56:40 on domain   4:     .15965 elapsed seconds
Timing for main: time 2016-02-05_12:56:40 on domain   2:    1.33422 elapsed seconds
Timing for main: time 2016-02-05_12:56:53 on domain   3:     .14852 elapsed seconds
Timing for main: time 2016-02-05_12:57:06 on domain   3:     .13528 elapsed seconds
Timing for main: time 2016-02-05_12:57:20 on domain   3:     .13559 elapsed seconds
Timing for main: time 2016-02-05_12:57:00 on domain   4:     .17066 elapsed seconds
Timing for main: time 2016-02-05_12:57:20 on domain   4:     .16149 elapsed seconds
Timing for main: time 2016-02-05_12:57:20 on domain   2:    1.32203 elapsed seconds
Timing for main: time 2016-02-05_12:57:33 on domain   3:     .14668 elapsed seconds
Timing for main: time 2016-02-05_12:57:46 on domain   3:     .13523 elapsed seconds
Timing for main: time 2016-02-05_12:58:00 on domain   3:     .13524 elapsed seconds
Timing for main: time 2016-02-05_12:57:40 on domain   4:     .17424 elapsed seconds
Timing for main: time 2016-02-05_12:58:00 on domain   4:     .15823 elapsed seconds
Timing for main: time 2016-02-05_12:58:00 on domain   2:    1.31099 elapsed seconds
Timing for main: time 2016-02-05_12:58:00 on domain   1:    4.30769 elapsed seconds
  photolysis_driver: called for domain  1
Timing for main: time 2016-02-05_12:58:13 on domain   3:     .14636 elapsed seconds
Timing for main: time 2016-02-05_12:58:26 on domain   3:     .13482 elapsed seconds
Timing for main: time 2016-02-05_12:58:40 on domain   3:     .14732 elapsed seconds
Timing for main: time 2016-02-05_12:58:20 on domain   4:     .17074 elapsed seconds
Timing for main: time 2016-02-05_12:58:40 on domain   4:     .16357 elapsed seconds
Timing for main: time 2016-02-05_12:58:40 on domain   2:    1.34129 elapsed seconds
Timing for main: time 2016-02-05_12:58:53 on domain   3:     .14718 elapsed seconds
Timing for main: time 2016-02-05_12:59:06 on domain   3:     .13607 elapsed seconds
Timing for main: time 2016-02-05_12:59:20 on domain   3:     .13971 elapsed seconds
Timing for main: time 2016-02-05_12:59:00 on domain   4:     .17126 elapsed seconds
Timing for main: time 2016-02-05_12:59:20 on domain   4:     .16045 elapsed seconds
Timing for main: time 2016-02-05_12:59:20 on domain   2:    1.31794 elapsed seconds
  photolysis_driver: called for domain  2
Timing for main: time 2016-02-05_12:59:33 on domain   3:     .14621 elapsed seconds
Timing for main: time 2016-02-05_12:59:46 on domain   3:     .13592 elapsed seconds
  photolysis_driver: called for domain  3
Timing for main: time 2016-02-05_13:00:00 on domain   3:     .76990 elapsed seconds
Timing for main: time 2016-02-05_12:59:40 on domain   4:     .17065 elapsed seconds
  photolysis_driver: called for domain  4
Timing for main: time 2016-02-05_13:00:00 on domain   4:     .90901 elapsed seconds
Timing for main: time 2016-02-05_13:00:00 on domain   2:    3.57313 elapsed seconds
Timing for main: time 2016-02-05_13:00:00 on domain   1:    7.00540 elapsed seconds
Timing for Writing wrfout_d01_2016-02-05_13:00:00 for domain        1:    1.53115 elapsed seconds
  HOURLY EMISSIONS UPDATE TIME     3600.0        .0
 mediation_integrate: med_read_wrf_chem_emissions: Read emissions for time 2016-02-05_13:00:00
 **WARNING** Time in input file not being checked **WARNING**
Timing for Writing wrfout_d02_2016-02-05_13:00:00 for domain        2:    2.12520 elapsed seconds
Timing for Writing wrfout_d03_2016-02-05_13:00:00 for domain        3:    1.95427 elapsed seconds
Timing for main: time 2016-02-05_13:00:13 on domain   3:    2.64331 elapsed seconds
Timing for main: time 2016-02-05_13:00:26 on domain   3:     .13567 elapsed seconds
Timing for main: time 2016-02-05_13:00:40 on domain   3:     .13561 elapsed seconds
Timing for Writing wrfout_d04_2016-02-05_13:00:00 for domain        4:    2.20991 elapsed seconds
Timing for main: time 2016-02-05_13:00:20 on domain   4:    3.23133 elapsed seconds
Timing for main: time 2016-02-05_13:00:40 on domain   4:     .15993 elapsed seconds
Timing for main: time 2016-02-05_13:00:40 on domain   2:    9.96407 elapsed seconds
Timing for main: time 2016-02-05_13:00:53 on domain   3:     .14813 elapsed seconds
Timing for main: time 2016-02-05_13:01:06 on domain   3:     .13495 elapsed seconds
Timing for main: time 2016-02-05_13:01:20 on domain   3:     .14443 elapsed seconds
Timing for main: time 2016-02-05_13:01:00 on domain   4:     .17027 elapsed seconds
Timing for main: time 2016-02-05_13:01:20 on domain   4:     .16107 elapsed seconds
Timing for main: time 2016-02-05_13:01:20 on domain   2:    1.33338 elapsed seconds
Timing for main: time 2016-02-05_13:01:33 on domain   3:     .14678 elapsed seconds
Timing for main: time 2016-02-05_13:01:46 on domain   3:     .13557 elapsed seconds
Timing for main: time 2016-02-05_13:02:00 on domain   3:     .13536 elapsed seconds
Timing for main: time 2016-02-05_13:01:40 on domain   4:     .17043 elapsed seconds
Timing for main: time 2016-02-05_13:02:00 on domain   4:     .16007 elapsed seconds
Timing for main: time 2016-02-05_13:02:00 on domain   2:    1.31217 elapsed seconds
Timing for main: time 2016-02-05_13:02:00 on domain   1:   15.25229 elapsed seconds
Timing for main: time 2016-02-05_13:02:13 on domain   3:     .14648 elapsed seconds
Timing for main: time 2016-02-05_13:02:26 on domain   3:     .13636 elapsed seconds
Timing for main: time 2016-02-05_13:02:40 on domain   3:     .13381 elapsed seconds
Timing for main: time 2016-02-05_13:02:20 on domain   4:     .17152 elapsed seconds
Timing for main: time 2016-02-05_13:02:40 on domain   4:     .16316 elapsed seconds
Timing for main: time 2016-02-05_13:02:40 on domain   2:    1.31874 elapsed seconds
Timing for main: time 2016-02-05_13:02:53 on domain   3:     .14667 elapsed seconds
Timing for main: time 2016-02-05_13:03:06 on domain   3:     .13589 elapsed seconds
Timing for main: time 2016-02-05_13:03:20 on domain   3:     .13426 elapsed seconds
Timing for main: time 2016-02-05_13:03:00 on domain   4:     .17071 elapsed seconds
Timing for main: time 2016-02-05_13:03:20 on domain   4:     .15958 elapsed seconds
Timing for main: time 2016-02-05_13:03:20 on domain   2:    1.31188 elapsed seconds
Timing for main: time 2016-02-05_13:03:33 on domain   3:     .15800 elapsed seconds
Timing for main: time 2016-02-05_13:03:46 on domain   3:     .14252 elapsed seconds
Timing for main: time 2016-02-05_13:04:00 on domain   3:     .13532 elapsed seconds
Timing for main: time 2016-02-05_13:03:40 on domain   4:     .17092 elapsed seconds
Timing for main: time 2016-02-05_13:04:00 on domain   4:     .15823 elapsed seconds
Timing for main: time 2016-02-05_13:04:00 on domain   2:    1.34919 elapsed seconds
Timing for main: time 2016-02-05_13:04:00 on domain   1:    4.28140 elapsed seconds
Timing for main: time 2016-02-05_13:04:13 on domain   3:     .14588 elapsed seconds
Timing for main: time 2016-02-05_13:04:26 on domain   3:     .13395 elapsed seconds
Timing for main: time 2016-02-05_13:04:40 on domain   3:     .13560 elapsed seconds
Timing for main: time 2016-02-05_13:04:20 on domain   4:     .17116 elapsed seconds
Timing for main: time 2016-02-05_13:04:40 on domain   4:     .16036 elapsed seconds
Timing for main: time 2016-02-05_13:04:40 on domain   2:    1.31857 elapsed seconds
Timing for main: time 2016-02-05_13:04:53 on domain   3:     .14628 elapsed seconds
Timing for main: time 2016-02-05_13:05:06 on domain   3:     .13725 elapsed seconds
Timing for main: time 2016-02-05_13:05:20 on domain   3:     .13773 elapsed seconds
Timing for main: time 2016-02-05_13:05:00 on domain   4:     .17824 elapsed seconds
Timing for main: time 2016-02-05_13:05:20 on domain   4:     .16107 elapsed seconds
Timing for main: time 2016-02-05_13:05:20 on domain   2:    1.32543 elapsed seconds
Timing for main: time 2016-02-05_13:05:33 on domain   3:     .14679 elapsed seconds
Timing for main: time 2016-02-05_13:05:46 on domain   3:     .13536 elapsed seconds
Timing for main: time 2016-02-05_13:06:00 on domain   3:     .13706 elapsed seconds
Timing for main: time 2016-02-05_13:05:40 on domain   4:     .17064 elapsed seconds
Timing for main: time 2016-02-05_13:06:00 on domain   4:     .15834 elapsed seconds
Timing for main: time 2016-02-05_13:06:00 on domain   2:    1.31257 elapsed seconds
Timing for main: time 2016-02-05_13:06:00 on domain   1:    4.26821 elapsed seconds
Timing for main: time 2016-02-05_13:06:13 on domain   3:     .14608 elapsed seconds
Timing for main: time 2016-02-05_13:06:26 on domain   3:     .14043 elapsed seconds
Timing for main: time 2016-02-05_13:06:40 on domain   3:     .14580 elapsed seconds
Timing for main: time 2016-02-05_13:06:20 on domain   4:     .17017 elapsed seconds
Timing for main: time 2016-02-05_13:06:40 on domain   4:     .15989 elapsed seconds
Timing for main: time 2016-02-05_13:06:40 on domain   2:    1.34260 elapsed seconds
Timing for main: time 2016-02-05_13:06:53 on domain   3:     .15040 elapsed seconds
Timing for main: time 2016-02-05_13:07:06 on domain   3:     .13776 elapsed seconds
Timing for main: time 2016-02-05_13:07:20 on domain   3:     .13619 elapsed seconds
Timing for main: time 2016-02-05_13:07:00 on domain   4:     .20002 elapsed seconds
Timing for main: time 2016-02-05_13:07:20 on domain   4:     .22033 elapsed seconds
Timing for main: time 2016-02-05_13:07:20 on domain   2:    1.40898 elapsed seconds
Timing for main: time 2016-02-05_13:07:33 on domain   3:     .14659 elapsed seconds
Timing for main: time 2016-02-05_13:07:46 on domain   3:     .13927 elapsed seconds
Timing for main: time 2016-02-05_13:08:00 on domain   3:     .13266 elapsed seconds
Timing for main: time 2016-02-05_13:07:40 on domain   4:     .17490 elapsed seconds
Timing for main: time 2016-02-05_13:08:00 on domain   4:     .15992 elapsed seconds
Timing for main: time 2016-02-05_13:08:00 on domain   2:    1.31495 elapsed seconds
Timing for main: time 2016-02-05_13:08:00 on domain   1:    4.36208 elapsed seconds
Timing for main: time 2016-02-05_13:08:13 on domain   3:     .14674 elapsed seconds
Timing for main: time 2016-02-05_13:08:26 on domain   3:     .13385 elapsed seconds
Timing for main: time 2016-02-05_13:08:40 on domain   3:     .13564 elapsed seconds
Timing for main: time 2016-02-05_13:08:20 on domain   4:     .17213 elapsed seconds
Timing for main: time 2016-02-05_13:08:40 on domain   4:     .17826 elapsed seconds
Timing for main: time 2016-02-05_13:08:40 on domain   2:    1.33564 elapsed seconds
Timing for main: time 2016-02-05_13:08:53 on domain   3:     .14670 elapsed seconds
Timing for main: time 2016-02-05_13:09:06 on domain   3:     .13590 elapsed seconds
Timing for main: time 2016-02-05_13:09:20 on domain   3:     .14208 elapsed seconds
Timing for main: time 2016-02-05_13:09:00 on domain   4:     .17403 elapsed seconds
Timing for main: time 2016-02-05_13:09:20 on domain   4:     .16331 elapsed seconds
Timing for main: time 2016-02-05_13:09:20 on domain   2:    1.33596 elapsed seconds
Timing for main: time 2016-02-05_13:09:33 on domain   3:     .14796 elapsed seconds
Timing for main: time 2016-02-05_13:09:46 on domain   3:     .13444 elapsed seconds
Timing for main: time 2016-02-05_13:10:00 on domain   3:     .13447 elapsed seconds
Timing for main: time 2016-02-05_13:09:40 on domain   4:     .17048 elapsed seconds
Timing for main: time 2016-02-05_13:10:00 on domain   4:     .16676 elapsed seconds
Timing for main: time 2016-02-05_13:10:00 on domain   2:    1.31895 elapsed seconds
Timing for main: time 2016-02-05_13:10:00 on domain   1:    4.28656 elapsed seconds
Timing for main: time 2016-02-05_13:10:13 on domain   3:     .14663 elapsed seconds
Timing for main: time 2016-02-05_13:10:26 on domain   3:     .13440 elapsed seconds
Timing for main: time 2016-02-05_13:10:40 on domain   3:     .13522 elapsed seconds
Timing for main: time 2016-02-05_13:10:20 on domain   4:     .17094 elapsed seconds
Timing for main: time 2016-02-05_13:10:40 on domain   4:     .16831 elapsed seconds
Timing for main: time 2016-02-05_13:10:40 on domain   2:    1.32542 elapsed seconds
Timing for main: time 2016-02-05_13:10:53 on domain   3:     .14854 elapsed seconds
Timing for main: time 2016-02-05_13:11:06 on domain   3:     .13803 elapsed seconds
Timing for main: time 2016-02-05_13:11:20 on domain   3:     .13405 elapsed seconds
Timing for main: time 2016-02-05_13:11:00 on domain   4:     .17131 elapsed seconds
Timing for main: time 2016-02-05_13:11:20 on domain   4:     .15998 elapsed seconds
Timing for main: time 2016-02-05_13:11:20 on domain   2:    1.31413 elapsed seconds
Timing for main: time 2016-02-05_13:11:33 on domain   3:     .15346 elapsed seconds
Timing for main: time 2016-02-05_13:11:46 on domain   3:     .13462 elapsed seconds
Timing for main: time 2016-02-05_13:12:00 on domain   3:     .13544 elapsed seconds
Timing for main: time 2016-02-05_13:11:40 on domain   4:     .17108 elapsed seconds
Timing for main: time 2016-02-05_13:12:00 on domain   4:     .15980 elapsed seconds
Timing for main: time 2016-02-05_13:12:00 on domain   2:    1.31826 elapsed seconds
Timing for main: time 2016-02-05_13:12:00 on domain   1:    4.25965 elapsed seconds
Timing for main: time 2016-02-05_13:12:13 on domain   3:     .15037 elapsed seconds
Timing for main: time 2016-02-05_13:12:26 on domain   3:     .13407 elapsed seconds
Timing for main: time 2016-02-05_13:12:40 on domain   3:     .13699 elapsed seconds
Timing for main: time 2016-02-05_13:12:20 on domain   4:     .17059 elapsed seconds
Timing for main: time 2016-02-05_13:12:40 on domain   4:     .15983 elapsed seconds
Timing for main: time 2016-02-05_13:12:40 on domain   2:    1.31823 elapsed seconds
Timing for main: time 2016-02-05_13:12:53 on domain   3:     .14856 elapsed seconds
Timing for main: time 2016-02-05_13:13:06 on domain   3:     .13518 elapsed seconds
Timing for main: time 2016-02-05_13:13:20 on domain   3:     .13641 elapsed seconds
Timing for main: time 2016-02-05_13:13:00 on domain   4:     .17069 elapsed seconds
Timing for main: time 2016-02-05_13:13:20 on domain   4:     .15964 elapsed seconds
Timing for main: time 2016-02-05_13:13:20 on domain   2:    1.31718 elapsed seconds
Timing for main: time 2016-02-05_13:13:33 on domain   3:     .15136 elapsed seconds
Timing for main: time 2016-02-05_13:13:46 on domain   3:     .17304 elapsed seconds
Timing for main: time 2016-02-05_13:14:00 on domain   3:     .19872 elapsed seconds
Timing for main: time 2016-02-05_13:13:40 on domain   4:     .17363 elapsed seconds
Timing for main: time 2016-02-05_13:14:00 on domain   4:     .16033 elapsed seconds
Timing for main: time 2016-02-05_13:14:00 on domain   2:    1.42118 elapsed seconds
Timing for main: time 2016-02-05_13:14:00 on domain   1:    4.35377 elapsed seconds
Timing for main: time 2016-02-05_13:14:13 on domain   3:     .14654 elapsed seconds
Timing for main: time 2016-02-05_13:14:26 on domain   3:     .13611 elapsed seconds
Timing for main: time 2016-02-05_13:14:40 on domain   3:     .13539 elapsed seconds
Timing for main: time 2016-02-05_13:14:20 on domain   4:     .17066 elapsed seconds
Timing for main: time 2016-02-05_13:14:40 on domain   4:     .15986 elapsed seconds
Timing for main: time 2016-02-05_13:14:40 on domain   2:    1.32363 elapsed seconds
Timing for main: time 2016-02-05_13:14:53 on domain   3:     .15275 elapsed seconds
Timing for main: time 2016-02-05_13:15:06 on domain   3:     .13386 elapsed seconds
Timing for main: time 2016-02-05_13:15:20 on domain   3:     .13876 elapsed seconds
Timing for main: time 2016-02-05_13:15:00 on domain   4:     .17782 elapsed seconds
Timing for main: time 2016-02-05_13:15:20 on domain   4:     .16081 elapsed seconds
Timing for main: time 2016-02-05_13:15:20 on domain   2:    1.32991 elapsed seconds
Timing for main: time 2016-02-05_13:15:33 on domain   3:     .14656 elapsed seconds
Timing for main: time 2016-02-05_13:15:46 on domain   3:     .13940 elapsed seconds
Timing for main: time 2016-02-05_13:16:00 on domain   3:     .13516 elapsed seconds
Timing for main: time 2016-02-05_13:15:40 on domain   4:     .17042 elapsed seconds
Timing for main: time 2016-02-05_13:16:00 on domain   4:     .15820 elapsed seconds
Timing for main: time 2016-02-05_13:16:00 on domain   2:    1.31179 elapsed seconds
Timing for main: time 2016-02-05_13:16:00 on domain   1:    4.26145 elapsed seconds
Timing for main: time 2016-02-05_13:16:13 on domain   3:     .15754 elapsed seconds
Timing for main: time 2016-02-05_13:16:26 on domain   3:     .13398 elapsed seconds
Timing for main: time 2016-02-05_13:16:40 on domain   3:     .14151 elapsed seconds
Timing for main: time 2016-02-05_13:16:20 on domain   4:     .17091 elapsed seconds
Timing for main: time 2016-02-05_13:16:40 on domain   4:     .15979 elapsed seconds
Timing for main: time 2016-02-05_13:16:40 on domain   2:    1.40548 elapsed seconds
Timing for main: time 2016-02-05_13:16:53 on domain   3:     .14835 elapsed seconds
Timing for main: time 2016-02-05_13:17:06 on domain   3:     .13508 elapsed seconds
Timing for main: time 2016-02-05_13:17:20 on domain   3:     .13564 elapsed seconds
Timing for main: time 2016-02-05_13:17:00 on domain   4:     .17096 elapsed seconds
Timing for main: time 2016-02-05_13:17:20 on domain   4:     .16024 elapsed seconds
Timing for main: time 2016-02-05_13:17:20 on domain   2:    1.32310 elapsed seconds
[...]
Timing for main: time 2016-02-05_17:36:00 on domain   2:    1.32611 elapsed seconds
Timing for main: time 2016-02-05_17:36:00 on domain   1:    4.27954 elapsed seconds
Timing for main: time 2016-02-05_17:36:13 on domain   3:     .14888 elapsed seconds
Timing for main: time 2016-02-05_17:36:26 on domain   3:     .13471 elapsed seconds
Timing for main: time 2016-02-05_17:36:40 on domain   3:     .13630 elapsed seconds
Timing for main: time 2016-02-05_17:36:20 on domain   4:     .17371 elapsed seconds
Timing for main: time 2016-02-05_17:36:40 on domain   4:     .16033 elapsed seconds
Timing for main: time 2016-02-05_17:36:40 on domain   2:    1.32354 elapsed seconds
Timing for main: time 2016-02-05_17:36:53 on domain   3:     .14890 elapsed seconds
Timing for main: time 2016-02-05_17:37:06 on domain   3:     .13816 elapsed seconds
Timing for main: time 2016-02-05_17:37:20 on domain   3:     .14215 elapsed seconds
Timing for main: time 2016-02-05_17:37:00 on domain   4:     .17214 elapsed seconds
Timing for main: time 2016-02-05_17:37:20 on domain   4:     .15861 elapsed seconds
Timing for main: time 2016-02-05_17:37:20 on domain   2:    1.32424 elapsed seconds
Timing for main: time 2016-02-05_17:37:33 on domain   3:     .14843 elapsed seconds
Timing for main: time 2016-02-05_17:37:46 on domain   3:     .13602 elapsed seconds
Timing for main: time 2016-02-05_17:38:00 on domain   3:     .13448 elapsed seconds
Timing for main: time 2016-02-05_17:37:40 on domain   4:     .17067 elapsed seconds
Timing for main: time 2016-02-05_17:38:00 on domain   4:     .16014 elapsed seconds
Timing for main: time 2016-02-05_17:38:00 on domain   2:    1.34161 elapsed seconds
Timing for main: time 2016-02-05_17:38:00 on domain   1:    4.28783 elapsed seconds
Timing for main: time 2016-02-05_17:38:13 on domain   3:     .14893 elapsed seconds
Timing for main: time 2016-02-05_17:38:26 on domain   3:     .13533 elapsed seconds
Timing for main: time 2016-02-05_17:38:40 on domain   3:     .13686 elapsed seconds
Timing for main: time 2016-02-05_17:38:20 on domain   4:     .17076 elapsed seconds
Timing for main: time 2016-02-05_17:38:40 on domain   4:     .16245 elapsed seconds
Timing for main: time 2016-02-05_17:38:40 on domain   2:    1.32561 elapsed seconds
Timing for main: time 2016-02-05_17:38:53 on domain   3:     .14851 elapsed seconds
Timing for main: time 2016-02-05_17:39:06 on domain   3:     .13595 elapsed seconds
Timing for main: time 2016-02-05_17:39:20 on domain   3:     .13600 elapsed seconds
Timing for main: time 2016-02-05_17:39:00 on domain   4:     .17050 elapsed seconds
Timing for main: time 2016-02-05_17:39:20 on domain   4:     .15884 elapsed seconds
Timing for main: time 2016-02-05_17:39:20 on domain   2:    1.32483 elapsed seconds
Timing for main: time 2016-02-05_17:39:33 on domain   3:     .15177 elapsed seconds
Timing for main: time 2016-02-05_17:39:46 on domain   3:     .13630 elapsed seconds
Timing for main: time 2016-02-05_17:40:00 on domain   3:     .13867 elapsed seconds
Timing for main: time 2016-02-05_17:39:40 on domain   4:     .17025 elapsed seconds
Timing for main: time 2016-02-05_17:40:00 on domain   4:     .16727 elapsed seconds
Timing for main: time 2016-02-05_17:40:00 on domain   2:    1.32895 elapsed seconds
Timing for main: time 2016-02-05_17:40:00 on domain   1:    4.27796 elapsed seconds
Timing for main: time 2016-02-05_17:40:13 on domain   3:     .14922 elapsed seconds
Timing for main: time 2016-02-05_17:40:26 on domain   3:     .13469 elapsed seconds
Timing for main: time 2016-02-05_17:40:40 on domain   3:     .13611 elapsed seconds
Timing for main: time 2016-02-05_17:40:20 on domain   4:     .17044 elapsed seconds
Timing for main: time 2016-02-05_17:40:40 on domain   4:     .16064 elapsed seconds
Timing for main: time 2016-02-05_17:40:40 on domain   2:    1.32358 elapsed seconds
Timing for main: time 2016-02-05_17:40:53 on domain   3:     .15839 elapsed seconds
Timing for main: time 2016-02-05_17:41:06 on domain   3:     .15275 elapsed seconds
Timing for main: time 2016-02-05_17:41:20 on domain   3:     .19942 elapsed seconds
Timing for main: time 2016-02-05_17:41:00 on domain   4:     .17642 elapsed seconds
Timing for main: time 2016-02-05_17:41:20 on domain   4:     .15904 elapsed seconds
Timing for main: time 2016-02-05_17:41:20 on domain   2:    1.43896 elapsed seconds
Timing for main: time 2016-02-05_17:41:33 on domain   3:     .14990 elapsed seconds
Timing for main: time 2016-02-05_17:41:46 on domain   3:     .13510 elapsed seconds
Timing for main: time 2016-02-05_17:42:00 on domain   3:     .13619 elapsed seconds
Timing for main: time 2016-02-05_17:41:40 on domain   4:     .18786 elapsed seconds
Timing for main: time 2016-02-05_17:42:00 on domain   4:     .16673 elapsed seconds
Timing for main: time 2016-02-05_17:42:00 on domain   2:    1.34130 elapsed seconds
Timing for main: time 2016-02-05_17:42:00 on domain   1:    4.40790 elapsed seconds
Timing for main: time 2016-02-05_17:42:13 on domain   3:     .14916 elapsed seconds
Timing for main: time 2016-02-05_17:42:26 on domain   3:     .14189 elapsed seconds
Timing for main: time 2016-02-05_17:42:40 on domain   3:     .13522 elapsed seconds
Timing for main: time 2016-02-05_17:42:20 on domain   4:     .17081 elapsed seconds
Timing for main: time 2016-02-05_17:42:40 on domain   4:     .16110 elapsed seconds
Timing for main: time 2016-02-05_17:42:40 on domain   2:    1.32637 elapsed seconds
Timing for main: time 2016-02-05_17:42:53 on domain   3:     .14886 elapsed seconds
Timing for main: time 2016-02-05_17:43:06 on domain   3:     .14790 elapsed seconds
Timing for main: time 2016-02-05_17:43:20 on domain   3:     .15060 elapsed seconds
Timing for main: time 2016-02-05_17:43:00 on domain   4:     .17087 elapsed seconds
Timing for main: time 2016-02-05_17:43:20 on domain   4:     .16736 elapsed seconds
Timing for main: time 2016-02-05_17:43:20 on domain   2:    1.37072 elapsed seconds
Timing for main: time 2016-02-05_17:43:33 on domain   3:     .14862 elapsed seconds
Timing for main: time 2016-02-05_17:43:46 on domain   3:     .13428 elapsed seconds
Timing for main: time 2016-02-05_17:44:00 on domain   3:     .13651 elapsed seconds
Timing for main: time 2016-02-05_17:43:40 on domain   4:     .17247 elapsed seconds
Timing for main: time 2016-02-05_17:44:00 on domain   4:     .15863 elapsed seconds
Timing for main: time 2016-02-05_17:44:00 on domain   2:    1.31098 elapsed seconds
Timing for main: time 2016-02-05_17:44:00 on domain   1:    4.33405 elapsed seconds
Timing for main: time 2016-02-05_17:44:13 on domain   3:     .14900 elapsed seconds
Timing for main: time 2016-02-05_17:44:26 on domain   3:     .13730 elapsed seconds
Timing for main: time 2016-02-05_17:44:40 on domain   3:     .13681 elapsed seconds
Timing for main: time 2016-02-05_17:44:20 on domain   4:     .17057 elapsed seconds
Timing for main: time 2016-02-05_17:44:40 on domain   4:     .16018 elapsed seconds
Timing for main: time 2016-02-05_17:44:40 on domain   2:    1.32189 elapsed seconds
Timing for main: time 2016-02-05_17:44:53 on domain   3:     .14977 elapsed seconds
Timing for main: time 2016-02-05_17:45:06 on domain   3:     .13482 elapsed seconds
Timing for main: time 2016-02-05_17:45:20 on domain   3:     .13660 elapsed seconds
Timing for main: time 2016-02-05_17:45:00 on domain   4:     .17770 elapsed seconds
Timing for main: time 2016-02-05_17:45:20 on domain   4:     .16326 elapsed seconds
Timing for main: time 2016-02-05_17:45:20 on domain   2:    1.33248 elapsed seconds
Timing for main: time 2016-02-05_17:45:33 on domain   3:     .14958 elapsed seconds
Timing for main: time 2016-02-05_17:45:46 on domain   3:     .13621 elapsed seconds
Timing for main: time 2016-02-05_17:46:00 on domain   3:     .13659 elapsed seconds
Timing for main: time 2016-02-05_17:45:40 on domain   4:     .17032 elapsed seconds
Timing for main: time 2016-02-05_17:46:00 on domain   4:     .16089 elapsed seconds
Timing for main: time 2016-02-05_17:46:00 on domain   2:    1.31644 elapsed seconds
Timing for main: time 2016-02-05_17:46:00 on domain   1:    4.26962 elapsed seconds
Timing for main: time 2016-02-05_17:46:13 on domain   3:     .14905 elapsed seconds
Timing for main: time 2016-02-05_17:46:26 on domain   3:     .13436 elapsed seconds
Timing for main: time 2016-02-05_17:46:40 on domain   3:     .13747 elapsed seconds
Timing for main: time 2016-02-05_17:46:20 on domain   4:     .17027 elapsed seconds
Timing for main: time 2016-02-05_17:46:40 on domain   4:     .16051 elapsed seconds
Timing for main: time 2016-02-05_17:46:40 on domain   2:    1.33071 elapsed seconds
Timing for main: time 2016-02-05_17:46:53 on domain   3:     .14836 elapsed seconds
Timing for main: time 2016-02-05_17:47:06 on domain   3:     .13617 elapsed seconds
Timing for main: time 2016-02-05_17:47:20 on domain   3:     .13628 elapsed seconds
Timing for main: time 2016-02-05_17:47:00 on domain   4:     .17139 elapsed seconds
Timing for main: time 2016-02-05_17:47:20 on domain   4:     .15817 elapsed seconds
Timing for main: time 2016-02-05_17:47:20 on domain   2:    1.31684 elapsed seconds
Timing for main: time 2016-02-05_17:47:33 on domain   3:     .15610 elapsed seconds
Timing for main: time 2016-02-05_17:47:46 on domain   3:     .13933 elapsed seconds
Timing for main: time 2016-02-05_17:48:00 on domain   3:     .13514 elapsed seconds
Timing for main: time 2016-02-05_17:47:40 on domain   4:     .17016 elapsed seconds
Timing for main: time 2016-02-05_17:48:00 on domain   4:     .16020 elapsed seconds
Timing for main: time 2016-02-05_17:48:00 on domain   2:    1.41047 elapsed seconds
Timing for main: time 2016-02-05_17:48:00 on domain   1:    4.44207 elapsed seconds
Timing for main: time 2016-02-05_17:48:13 on domain   3:     .14818 elapsed seconds
Timing for main: time 2016-02-05_17:48:26 on domain   3:     .13455 elapsed seconds
Timing for main: time 2016-02-05_17:48:40 on domain   3:     .13644 elapsed seconds
Timing for main: time 2016-02-05_17:48:20 on domain   4:     .17202 elapsed seconds
Timing for main: time 2016-02-05_17:48:40 on domain   4:     .15889 elapsed seconds
Timing for main: time 2016-02-05_17:48:40 on domain   2:    1.32051 elapsed seconds
Timing for main: time 2016-02-05_17:48:53 on domain   3:     .15903 elapsed seconds
Timing for main: time 2016-02-05_17:49:06 on domain   3:     .13639 elapsed seconds
Timing for main: time 2016-02-05_17:49:20 on domain   3:     .13625 elapsed seconds
Timing for main: time 2016-02-05_17:49:00 on domain   4:     .17010 elapsed seconds
Timing for main: time 2016-02-05_17:49:20 on domain   4:     .16001 elapsed seconds
Timing for main: time 2016-02-05_17:49:20 on domain   2:    1.32626 elapsed seconds
Timing for main: time 2016-02-05_17:49:33 on domain   3:     .14976 elapsed seconds
Timing for main: time 2016-02-05_17:49:46 on domain   3:     .13557 elapsed seconds
Timing for main: time 2016-02-05_17:50:00 on domain   3:     .13694 elapsed seconds
Timing for main: time 2016-02-05_17:49:40 on domain   4:     .17251 elapsed seconds
Timing for main: time 2016-02-05_17:50:00 on domain   4:     .16806 elapsed seconds
Timing for main: time 2016-02-05_17:50:00 on domain   2:    1.32707 elapsed seconds
Timing for main: time 2016-02-05_17:50:00 on domain   1:    4.27236 elapsed seconds
Timing for main: time 2016-02-05_17:50:13 on domain   3:     .14867 elapsed seconds
Timing for main: time 2016-02-05_17:50:26 on domain   3:     .14241 elapsed seconds
Timing for main: time 2016-02-05_17:50:40 on domain   3:     .13638 elapsed seconds
Timing for main: time 2016-02-05_17:50:20 on domain   4:     .17078 elapsed seconds
Timing for main: time 2016-02-05_17:50:40 on domain   4:     .15793 elapsed seconds
Timing for main: time 2016-02-05_17:50:40 on domain   2:    1.32682 elapsed seconds
Timing for main: time 2016-02-05_17:50:53 on domain   3:     .14850 elapsed seconds
Timing for main: time 2016-02-05_17:51:06 on domain   3:     .13790 elapsed seconds
Timing for main: time 2016-02-05_17:51:20 on domain   3:     .13480 elapsed seconds
Timing for main: time 2016-02-05_17:51:00 on domain   4:     .17179 elapsed seconds
Timing for main: time 2016-02-05_17:51:20 on domain   4:     .16184 elapsed seconds
Timing for main: time 2016-02-05_17:51:20 on domain   2:    1.31892 elapsed seconds
Timing for main: time 2016-02-05_17:51:33 on domain   3:     .15724 elapsed seconds
Timing for main: time 2016-02-05_17:51:46 on domain   3:     .13409 elapsed seconds
Timing for main: time 2016-02-05_17:52:00 on domain   3:     .13636 elapsed seconds
Timing for main: time 2016-02-05_17:51:40 on domain   4:     .17033 elapsed seconds
Timing for main: time 2016-02-05_17:52:00 on domain   4:     .16250 elapsed seconds
Timing for main: time 2016-02-05_17:52:00 on domain   2:    1.33597 elapsed seconds
Timing for main: time 2016-02-05_17:52:00 on domain   1:    4.27939 elapsed seconds
Timing for main: time 2016-02-05_17:52:13 on domain   3:     .14965 elapsed seconds
Timing for main: time 2016-02-05_17:52:26 on domain   3:     .13654 elapsed seconds
Timing for main: time 2016-02-05_17:52:40 on domain   3:     .14364 elapsed seconds
Timing for main: time 2016-02-05_17:52:20 on domain   4:     .17039 elapsed seconds
Timing for main: time 2016-02-05_17:52:40 on domain   4:     .16013 elapsed seconds
Timing for main: time 2016-02-05_17:52:40 on domain   2:    1.32707 elapsed seconds
Timing for main: time 2016-02-05_17:52:53 on domain   3:     .15086 elapsed seconds
Timing for main: time 2016-02-05_17:53:06 on domain   3:     .13449 elapsed seconds
Timing for main: time 2016-02-05_17:53:20 on domain   3:     .13631 elapsed seconds
Timing for main: time 2016-02-05_17:53:00 on domain   4:     .17072 elapsed seconds
Timing for main: time 2016-02-05_17:53:20 on domain   4:     .15998 elapsed seconds
Timing for main: time 2016-02-05_17:53:20 on domain   2:    1.31645 elapsed seconds
Timing for main: time 2016-02-05_17:53:33 on domain   3:     .14890 elapsed seconds
Timing for main: time 2016-02-05_17:53:46 on domain   3:     .13562 elapsed seconds
Timing for main: time 2016-02-05_17:54:00 on domain   3:     .13640 elapsed seconds
Timing for main: time 2016-02-05_17:53:40 on domain   4:     .17031 elapsed seconds
Timing for main: time 2016-02-05_17:54:00 on domain   4:     .16100 elapsed seconds
Timing for main: time 2016-02-05_17:54:00 on domain   2:    1.33781 elapsed seconds
Timing for main: time 2016-02-05_17:54:00 on domain   1:    4.28410 elapsed seconds
Timing for main: time 2016-02-05_17:54:13 on domain   3:     .14864 elapsed seconds
Timing for main: time 2016-02-05_17:54:26 on domain   3:     .13636 elapsed seconds
Timing for main: time 2016-02-05_17:54:40 on domain   3:     .13515 elapsed seconds
Timing for main: time 2016-02-05_17:54:20 on domain   4:     .18088 elapsed seconds
Timing for main: time 2016-02-05_17:54:40 on domain   4:     .15879 elapsed seconds
Timing for main: time 2016-02-05_17:54:40 on domain   2:    1.34999 elapsed seconds
Timing for main: time 2016-02-05_17:54:53 on domain   3:     .14848 elapsed seconds
Timing for main: time 2016-02-05_17:55:06 on domain   3:     .13488 elapsed seconds
Timing for main: time 2016-02-05_17:55:20 on domain   3:     .13614 elapsed seconds
Timing for main: time 2016-02-05_17:55:00 on domain   4:     .17775 elapsed seconds
Timing for main: time 2016-02-05_17:55:20 on domain   4:     .15991 elapsed seconds
Timing for main: time 2016-02-05_17:55:20 on domain   2:    1.32372 elapsed seconds
Timing for main: time 2016-02-05_17:55:33 on domain   3:     .14856 elapsed seconds
Timing for main: time 2016-02-05_17:55:46 on domain   3:     .13592 elapsed seconds
Timing for main: time 2016-02-05_17:56:00 on domain   3:     .13689 elapsed seconds
Timing for main: time 2016-02-05_17:55:40 on domain   4:     .17086 elapsed seconds
Timing for main: time 2016-02-05_17:56:00 on domain   4:     .16010 elapsed seconds
Timing for main: time 2016-02-05_17:56:00 on domain   2:    1.31965 elapsed seconds
Timing for main: time 2016-02-05_17:56:00 on domain   1:    4.29129 elapsed seconds
Timing for main: time 2016-02-05_17:56:13 on domain   3:     .14889 elapsed seconds
Timing for main: time 2016-02-05_17:56:26 on domain   3:     .13449 elapsed seconds
Timing for main: time 2016-02-05_17:56:40 on domain   3:     .13627 elapsed seconds
Timing for main: time 2016-02-05_17:56:20 on domain   4:     .17032 elapsed seconds
Timing for main: time 2016-02-05_17:56:40 on domain   4:     .16039 elapsed seconds
Timing for main: time 2016-02-05_17:56:40 on domain   2:    1.31826 elapsed seconds
Timing for main: time 2016-02-05_17:56:53 on domain   3:     .14897 elapsed seconds
Timing for main: time 2016-02-05_17:57:06 on domain   3:     .13741 elapsed seconds
Timing for main: time 2016-02-05_17:57:20 on domain   3:     .13651 elapsed seconds
Timing for main: time 2016-02-05_17:57:00 on domain   4:     .17257 elapsed seconds
Timing for main: time 2016-02-05_17:57:20 on domain   4:     .16314 elapsed seconds
Timing for main: time 2016-02-05_17:57:20 on domain   2:    1.33300 elapsed seconds
Timing for main: time 2016-02-05_17:57:33 on domain   3:     .14860 elapsed seconds
Timing for main: time 2016-02-05_17:57:46 on domain   3:     .14185 elapsed seconds
Timing for main: time 2016-02-05_17:58:00 on domain   3:     .13636 elapsed seconds
Timing for main: time 2016-02-05_17:57:40 on domain   4:     .17019 elapsed seconds
Timing for main: time 2016-02-05_17:58:00 on domain   4:     .15863 elapsed seconds
Timing for main: time 2016-02-05_17:58:00 on domain   2:    1.31863 elapsed seconds
Timing for main: time 2016-02-05_17:58:00 on domain   1:    4.27025 elapsed seconds
  photolysis_driver: called for domain  1
Timing for main: time 2016-02-05_17:58:13 on domain   3:     .14910 elapsed seconds
Timing for main: time 2016-02-05_17:58:26 on domain   3:     .13413 elapsed seconds
Timing for main: time 2016-02-05_17:58:40 on domain   3:     .13687 elapsed seconds
Timing for main: time 2016-02-05_17:58:20 on domain   4:     .17158 elapsed seconds
Timing for main: time 2016-02-05_17:58:40 on domain   4:     .16911 elapsed seconds
Timing for main: time 2016-02-05_17:58:40 on domain   2:    1.33010 elapsed seconds
Timing for main: time 2016-02-05_17:58:53 on domain   3:     .14878 elapsed seconds
Timing for main: time 2016-02-05_17:59:06 on domain   3:     .13665 elapsed seconds
Timing for main: time 2016-02-05_17:59:20 on domain   3:     .13755 elapsed seconds
Timing for main: time 2016-02-05_17:59:00 on domain   4:     .17044 elapsed seconds
Timing for main: time 2016-02-05_17:59:20 on domain   4:     .16026 elapsed seconds
Timing for main: time 2016-02-05_17:59:20 on domain   2:    1.32039 elapsed seconds
  photolysis_driver: called for domain  2
Timing for main: time 2016-02-05_17:59:33 on domain   3:     .14921 elapsed seconds
Timing for main: time 2016-02-05_17:59:46 on domain   3:     .13723 elapsed seconds
  photolysis_driver: called for domain  3
Timing for main: time 2016-02-05_18:00:00 on domain   3:     .76988 elapsed seconds
Timing for Writing wrfout_d03_2016-02-05_18:00:00 for domain        3:    1.87507 elapsed seconds
Timing for main: time 2016-02-05_17:59:40 on domain   4:     .16997 elapsed seconds
  photolysis_driver: called for domain  4
Timing for main: time 2016-02-05_18:00:00 on domain   4:     .91525 elapsed seconds
Timing for Writing wrfout_d04_2016-02-05_18:00:00 for domain        4:    2.07652 elapsed seconds
Timing for main: time 2016-02-05_18:00:00 on domain   2:    8.78739 elapsed seconds
Timing for Writing wrfout_d02_2016-02-05_18:00:00 for domain        2:    2.20289 elapsed seconds
Timing for main: time 2016-02-05_18:00:00 on domain   1:   15.21467 elapsed seconds
Timing for Writing wrfout_d01_2016-02-05_18:00:00 for domain        1:    1.54417 elapsed seconds
 d01 2016-02-05_18:00:00 wrf: SUCCESS COMPLETE WRF
