taskid: 0 hostname: p10a51.pbm.ihost.com
  Ntasks in X  15 , ntasks in Y  16
 Setting blank km_opt entries to domain #1 values.
  --> The km_opt entry in the namelist.input is now max_domains.
 Setting blank diff_opt entries to domain #1 values.
  --> The diff_opt entry in the namelist.input is now max_domains.
 --- WARNING: traj_opt is zero, but num_traj is not zero; setting num_traj to zero.
 --- NOTE: hypsometric_opt is 2, setting adjust_heights = F
 --- NOTE: sst_update is 0, setting io_form_auxinput4 = 0 and auxinput4_interval = 0 for all domains
 --- NOTE: sst_update is 0, setting io_form_auxinput4 = 0 and auxinput4_interval = 0 for all domains
 --- NOTE: sst_update is 0, setting io_form_auxinput4 = 0 and auxinput4_interval = 0 for all domains
 --- NOTE: sst_update is 0, setting io_form_auxinput4 = 0 and auxinput4_interval = 0 for all domains
 --- NOTE: grid_fdda is 0 for domain      1, setting gfdda interval and ending time to 0 for that domain.
 --- NOTE: both grid_sfdda and pxlsm_soil_nudge are 0 for domain      1, setting sgfdda interval and ending time to 0 for that domain.
 --- NOTE: obs_nudge_opt is 0 for domain      1, setting obs nudging interval and ending time to 0 for that domain.
 --- NOTE: grid_fdda is 0 for domain      2, setting gfdda interval and ending time to 0 for that domain.
 --- NOTE: both grid_sfdda and pxlsm_soil_nudge are 0 for domain      2, setting sgfdda interval and ending time to 0 for that domain.
 --- NOTE: obs_nudge_opt is 0 for domain      2, setting obs nudging interval and ending time to 0 for that domain.
 --- NOTE: grid_fdda is 0 for domain      3, setting gfdda interval and ending time to 0 for that domain.
 --- NOTE: both grid_sfdda and pxlsm_soil_nudge are 0 for domain      3, setting sgfdda interval and ending time to 0 for that domain.
 --- NOTE: obs_nudge_opt is 0 for domain      3, setting obs nudging interval and ending time to 0 for that domain.
 --- NOTE: grid_fdda is 0 for domain      4, setting gfdda interval and ending time to 0 for that domain.
 --- NOTE: both grid_sfdda and pxlsm_soil_nudge are 0 for domain      4, setting sgfdda interval and ending time to 0 for that domain.
 --- NOTE: obs_nudge_opt is 0 for domain      4, setting obs nudging interval and ending time to 0 for that domain.
 bl_pbl_physics /= 4, implies mfshconv must be 0, resetting
 --- NOTE: num_soil_layers has been set to      4
 WRF V3.6 MODEL
  *************************************
  Parent domain
  ids,ide,jds,jde  1 271 1 181
  ims,ime,jms,jme  -4 25 -4 19
  ips,ipe,jps,jpe  1 18 1 12
  *************************************
 DYNAMICS OPTION: Eulerian Mass Coordinate
    alloc_space_field: domain  1 ,  74140288  bytes allocated
   med_initialdata_input: calling input_input
Timing for processing wrfinput file (stream 0) for domain        1:    3.88533 elapsed seconds
 INPUT LandUse = "USGS"
  LANDUSE TYPE = "USGS" FOUND 33  CATEGORIES 2  SEASONS WATER CATEGORY =  16  SNOW CATEGORY =  24
 INITIALIZE THREE Noah LSM RELATED TABLES
  LANDUSE TYPE = USGS FOUND 27  CATEGORIES
  INPUT SOIL TEXTURE CLASSIFICATION = STAS
  SOIL TEXTURE CLASSIFICATION = STAS FOUND 19  CATEGORIES
 *********************************************************************
 *             PROGRAM:WRF/CHEM V3.6 MODEL
 *                                                                   *
 *    PLEASE REPORT ANY BUGS TO WRF/CHEM HELP at                     *
 *                                                                   *
 *              wrfchemhelp.gsd@noaa.gov                             *
 *                                                                   *
 *********************************************************************
 WARNING: dust option 1 currently works only with the GOCART aerosol option.
 WARNING: sea salt option 1 currently works only with the GOCART aerosol option.
  *************************************
  Nesting domain
  ids,ide,jds,jde  1 361 1 253
  ims,ime,jms,jme  -4 36 -4 27
  ips,ipe,jps,jpe  1 24 1 16
  INTERMEDIATE domain
  ids,ide,jds,jde  74 199 47 136
  ims,ime,jms,jme  69 93 42 63
  ips,ipe,jps,jpe  72 83 45 53
  *************************************
 d01 2016-02-05_12:00:00  alloc_space_field: domain  2 ,  131229456  bytes allocated
 d01 2016-02-05_12:00:00  alloc_space_field: domain  2 ,  6927800  bytes allocated
 d01 2016-02-05_12:00:00 *** Initializing nest domain # 2 from an input file. ***
 d01 2016-02-05_12:00:00 med_initialdata_input: calling input_input
Timing for processing wrfinput file (stream 0) for domain        2:    6.51992 elapsed seconds
 INPUT LandUse = "USGS"
  LANDUSE TYPE = "USGS" FOUND 33  CATEGORIES 2  SEASONS WATER CATEGORY =  16  SNOW CATEGORY =  24
 INITIALIZE THREE Noah LSM RELATED TABLES
  LANDUSE TYPE = USGS FOUND 27  CATEGORIES
  INPUT SOIL TEXTURE CLASSIFICATION = STAS
  SOIL TEXTURE CLASSIFICATION = STAS FOUND 19  CATEGORIES
 *********************************************************************
 *             PROGRAM:WRF/CHEM V3.6 MODEL
 *                                                                   *
 *    PLEASE REPORT ANY BUGS TO WRF/CHEM HELP at                     *
 *                                                                   *
 *              wrfchemhelp.gsd@noaa.gov                             *
 *                                                                   *
 *********************************************************************
 WARNING: dust option 1 currently works only with the GOCART aerosol option.
 WARNING: sea salt option 1 currently works only with the GOCART aerosol option.
 INPUT LandUse = "USGS"
  LANDUSE TYPE = "USGS" FOUND 33  CATEGORIES 2  SEASONS WATER CATEGORY =  16  SNOW CATEGORY =  24
 INITIALIZE THREE Noah LSM RELATED TABLES
  LANDUSE TYPE = USGS FOUND 27  CATEGORIES
  INPUT SOIL TEXTURE CLASSIFICATION = STAS
  SOIL TEXTURE CLASSIFICATION = STAS FOUND 19  CATEGORIES
 *********************************************************************
 *             PROGRAM:WRF/CHEM V3.6 MODEL
 *                                                                   *
 *    PLEASE REPORT ANY BUGS TO WRF/CHEM HELP at                     *
 *                                                                   *
 *              wrfchemhelp.gsd@noaa.gov                             *
 *                                                                   *
 *********************************************************************
 WARNING: dust option 1 currently works only with the GOCART aerosol option.
 WARNING: sea salt option 1 currently works only with the GOCART aerosol option.
 INPUT LandUse = "USGS"
  LANDUSE TYPE = "USGS" FOUND 33  CATEGORIES 2  SEASONS WATER CATEGORY =  16  SNOW CATEGORY =  24
 INITIALIZE THREE Noah LSM RELATED TABLES
  LANDUSE TYPE = USGS FOUND 27  CATEGORIES
  INPUT SOIL TEXTURE CLASSIFICATION = STAS
  SOIL TEXTURE CLASSIFICATION = STAS FOUND 19  CATEGORIES
 *********************************************************************
 *             PROGRAM:WRF/CHEM V3.6 MODEL
 *                                                                   *
 *    PLEASE REPORT ANY BUGS TO WRF/CHEM HELP at                     *
 *                                                                   *
 *              wrfchemhelp.gsd@noaa.gov                             *
 *                                                                   *
 *********************************************************************
 WARNING: dust option 1 currently works only with the GOCART aerosol option.
 WARNING: sea salt option 1 currently works only with the GOCART aerosol option.
Timing for Writing wrfout_d01_2016-02-05_12:00:00 for domain        1:    1.74653 elapsed seconds
  mediation_integrate: med_read_wrf_chem_emissions: Open file wrfchemi_12z_d01
  HOURLY EMISSIONS UPDATE TIME         .0        .0
 mediation_integrate: med_read_wrf_chem_emissions: Read emissions for time 2016-02-05_12:00:00
 **WARNING** Time in input file not being checked **WARNING**
Timing for processing lateral boundary for domain        1:    3.20390 elapsed seconds
  Tile Strategy is not specified. Assuming 1D-Y
 WRF TILE   1 IS      1 IE     18 JS      1 JE     12
 WRF NUMBER OF TILES =   1
  photolysis_driver: called for domain  1
  *************************************
  Nesting domain
  ids,ide,jds,jde  1 307 1 241
  ims,ime,jms,jme  -4 33 -4 27
  ips,ipe,jps,jpe  1 21 1 15
  INTERMEDIATE domain
  ids,ide,jds,jde  124 231 35 120
  ims,ime,jms,jme  119 142 30 51
  ips,ipe,jps,jpe  122 132 33 41
  *************************************
 d02 2016-02-05_12:00:00  alloc_space_field: domain  3 ,  121923436  bytes allocated
 d02 2016-02-05_12:00:00  alloc_space_field: domain  3 ,  6650688  bytes allocated
 d02 2016-02-05_12:00:00 *** Initializing nest domain # 3 from an input file. ***
 d02 2016-02-05_12:00:00 med_initialdata_input: calling input_input
Timing for processing wrfinput file (stream 0) for domain        3:    5.06101 elapsed seconds
 INPUT LandUse = "USGS"
  LANDUSE TYPE = "USGS" FOUND 33  CATEGORIES 2  SEASONS WATER CATEGORY =  16  SNOW CATEGORY =  24
 INITIALIZE THREE Noah LSM RELATED TABLES
  LANDUSE TYPE = USGS FOUND 27  CATEGORIES
  INPUT SOIL TEXTURE CLASSIFICATION = STAS
  SOIL TEXTURE CLASSIFICATION = STAS FOUND 19  CATEGORIES
 *********************************************************************
 *             PROGRAM:WRF/CHEM V3.6 MODEL
 *                                                                   *
 *    PLEASE REPORT ANY BUGS TO WRF/CHEM HELP at                     *
 *                                                                   *
 *              wrfchemhelp.gsd@noaa.gov                             *
 *                                                                   *
 *********************************************************************
 WARNING: dust option 1 currently works only with the GOCART aerosol option.
 WARNING: sea salt option 1 currently works only with the GOCART aerosol option.
 INPUT LandUse = "USGS"
  LANDUSE TYPE = "USGS" FOUND 33  CATEGORIES 2  SEASONS WATER CATEGORY =  16  SNOW CATEGORY =  24
 INITIALIZE THREE Noah LSM RELATED TABLES
  LANDUSE TYPE = USGS FOUND 27  CATEGORIES
  INPUT SOIL TEXTURE CLASSIFICATION = STAS
  SOIL TEXTURE CLASSIFICATION = STAS FOUND 19  CATEGORIES
 *********************************************************************
 *             PROGRAM:WRF/CHEM V3.6 MODEL
 *                                                                   *
 *    PLEASE REPORT ANY BUGS TO WRF/CHEM HELP at                     *
 *                                                                   *
 *              wrfchemhelp.gsd@noaa.gov                             *
 *                                                                   *
 *********************************************************************
 WARNING: dust option 1 currently works only with the GOCART aerosol option.
 WARNING: sea salt option 1 currently works only with the GOCART aerosol option.
 INPUT LandUse = "USGS"
  LANDUSE TYPE = "USGS" FOUND 33  CATEGORIES 2  SEASONS WATER CATEGORY =  16  SNOW CATEGORY =  24
 INITIALIZE THREE Noah LSM RELATED TABLES
  LANDUSE TYPE = USGS FOUND 27  CATEGORIES
  INPUT SOIL TEXTURE CLASSIFICATION = STAS
  SOIL TEXTURE CLASSIFICATION = STAS FOUND 19  CATEGORIES
 *********************************************************************
 *             PROGRAM:WRF/CHEM V3.6 MODEL
 *                                                                   *
 *    PLEASE REPORT ANY BUGS TO WRF/CHEM HELP at                     *
 *                                                                   *
 *              wrfchemhelp.gsd@noaa.gov                             *
 *                                                                   *
 *********************************************************************
 WARNING: dust option 1 currently works only with the GOCART aerosol option.
 WARNING: sea salt option 1 currently works only with the GOCART aerosol option.
  *************************************
  Nesting domain
  ids,ide,jds,jde  1 217 1 388
  ims,ime,jms,jme  -4 27 -4 36
  ips,ipe,jps,jpe  1 15 1 25
  INTERMEDIATE domain
  ids,ide,jds,jde  225 302 83 217
  ims,ime,jms,jme  220 241 78 102
  ips,ipe,jps,jpe  223 231 81 92
  *************************************
 d02 2016-02-05_12:00:00  alloc_space_field: domain  4 ,  131190972  bytes allocated
 d02 2016-02-05_12:00:00  alloc_space_field: domain  4 ,  6927800  bytes allocated
 d02 2016-02-05_12:00:00 *** Initializing nest domain # 4 from an input file. ***
 d02 2016-02-05_12:00:00 med_initialdata_input: calling input_input
Timing for processing wrfinput file (stream 0) for domain        4:    6.17769 elapsed seconds
 INPUT LandUse = "USGS"
  LANDUSE TYPE = "USGS" FOUND 33  CATEGORIES 2  SEASONS WATER CATEGORY =  16  SNOW CATEGORY =  24
 INITIALIZE THREE Noah LSM RELATED TABLES
  LANDUSE TYPE = USGS FOUND 27  CATEGORIES
  INPUT SOIL TEXTURE CLASSIFICATION = STAS
  SOIL TEXTURE CLASSIFICATION = STAS FOUND 19  CATEGORIES
 *********************************************************************
 *             PROGRAM:WRF/CHEM V3.6 MODEL
 *                                                                   *
 *    PLEASE REPORT ANY BUGS TO WRF/CHEM HELP at                     *
 *                                                                   *
 *              wrfchemhelp.gsd@noaa.gov                             *
 *                                                                   *
 *********************************************************************
 WARNING: dust option 1 currently works only with the GOCART aerosol option.
 WARNING: sea salt option 1 currently works only with the GOCART aerosol option.
 INPUT LandUse = "USGS"
  LANDUSE TYPE = "USGS" FOUND 33  CATEGORIES 2  SEASONS WATER CATEGORY =  16  SNOW CATEGORY =  24
 INITIALIZE THREE Noah LSM RELATED TABLES
  LANDUSE TYPE = USGS FOUND 27  CATEGORIES
  INPUT SOIL TEXTURE CLASSIFICATION = STAS
  SOIL TEXTURE CLASSIFICATION = STAS FOUND 19  CATEGORIES
 *********************************************************************
 *             PROGRAM:WRF/CHEM V3.6 MODEL
 *                                                                   *
 *    PLEASE REPORT ANY BUGS TO WRF/CHEM HELP at                     *
 *                                                                   *
 *              wrfchemhelp.gsd@noaa.gov                             *
 *                                                                   *
 *********************************************************************
 WARNING: dust option 1 currently works only with the GOCART aerosol option.
 WARNING: sea salt option 1 currently works only with the GOCART aerosol option.
 INPUT LandUse = "USGS"
  LANDUSE TYPE = "USGS" FOUND 33  CATEGORIES 2  SEASONS WATER CATEGORY =  16  SNOW CATEGORY =  24
 INITIALIZE THREE Noah LSM RELATED TABLES
  LANDUSE TYPE = USGS FOUND 27  CATEGORIES
  INPUT SOIL TEXTURE CLASSIFICATION = STAS
  SOIL TEXTURE CLASSIFICATION = STAS FOUND 19  CATEGORIES
 *********************************************************************
 *             PROGRAM:WRF/CHEM V3.6 MODEL
 *                                                                   *
 *    PLEASE REPORT ANY BUGS TO WRF/CHEM HELP at                     *
 *                                                                   *
 *              wrfchemhelp.gsd@noaa.gov                             *
 *                                                                   *
 *********************************************************************
 WARNING: dust option 1 currently works only with the GOCART aerosol option.
 WARNING: sea salt option 1 currently works only with the GOCART aerosol option.
Timing for Writing wrfout_d02_2016-02-05_12:00:00 for domain        2:    2.32111 elapsed seconds
  mediation_integrate: med_read_wrf_chem_emissions: Open file wrfchemi_12z_d02
  HOURLY EMISSIONS UPDATE TIME         .0        .0
 mediation_integrate: med_read_wrf_chem_emissions: Read emissions for time 2016-02-05_12:00:00
 **WARNING** Time in input file not being checked **WARNING**
  Tile Strategy is not specified. Assuming 1D-Y
 WRF TILE   1 IS      1 IE     24 JS      1 JE     16
 WRF NUMBER OF TILES =   1
  photolysis_driver: called for domain  2
Timing for Writing wrfout_d03_2016-02-05_12:00:00 for domain        3:    1.96345 elapsed seconds
  mediation_integrate: med_read_wrf_chem_emissions: Open file wrfchemi_12z_d03
  HOURLY EMISSIONS UPDATE TIME         .0        .0
 mediation_integrate: med_read_wrf_chem_emissions: Read emissions for time 2016-02-05_12:00:00
 **WARNING** Time in input file not being checked **WARNING**
  Tile Strategy is not specified. Assuming 1D-Y
 WRF TILE   1 IS      1 IE     21 JS      1 JE     15
 WRF NUMBER OF TILES =   1
  photolysis_driver: called for domain  3
Timing for main: time 2016-02-05_12:00:13 on domain   3:    4.39480 elapsed seconds
Timing for main: time 2016-02-05_12:00:26 on domain   3:     .11187 elapsed seconds
Timing for main: time 2016-02-05_12:00:40 on domain   3:     .12994 elapsed seconds
Timing for Writing wrfout_d04_2016-02-05_12:00:00 for domain        4:    2.12621 elapsed seconds
  mediation_integrate: med_read_wrf_chem_emissions: Open file wrfchemi_12z_d04
  HOURLY EMISSIONS UPDATE TIME         .0        .0
 mediation_integrate: med_read_wrf_chem_emissions: Read emissions for time 2016-02-05_12:00:00
 **WARNING** Time in input file not being checked **WARNING**
  Tile Strategy is not specified. Assuming 1D-Y
 WRF TILE   1 IS      1 IE     15 JS      1 JE     25
 WRF NUMBER OF TILES =   1
  photolysis_driver: called for domain  4
Timing for main: time 2016-02-05_12:00:20 on domain   4:    5.00680 elapsed seconds
Timing for main: time 2016-02-05_12:00:40 on domain   4:     .24713 elapsed seconds
Timing for main: time 2016-02-05_12:00:40 on domain   2:   30.08873 elapsed seconds
Timing for main: time 2016-02-05_12:00:53 on domain   3:     .14655 elapsed seconds
Timing for main: time 2016-02-05_12:01:06 on domain   3:     .13731 elapsed seconds
Timing for main: time 2016-02-05_12:01:20 on domain   3:     .13020 elapsed seconds
Timing for main: time 2016-02-05_12:01:00 on domain   4:     .16922 elapsed seconds
Timing for main: time 2016-02-05_12:01:20 on domain   4:     .16355 elapsed seconds
Timing for main: time 2016-02-05_12:01:20 on domain   2:    1.33854 elapsed seconds
Timing for main: time 2016-02-05_12:01:33 on domain   3:     .14779 elapsed seconds
Timing for main: time 2016-02-05_12:01:46 on domain   3:     .14257 elapsed seconds
Timing for main: time 2016-02-05_12:02:00 on domain   3:     .13742 elapsed seconds
Timing for main: time 2016-02-05_12:01:40 on domain   4:     .16755 elapsed seconds
Timing for main: time 2016-02-05_12:02:00 on domain   4:     .16120 elapsed seconds
Timing for main: time 2016-02-05_12:02:00 on domain   2:    1.36674 elapsed seconds
Timing for main: time 2016-02-05_12:02:00 on domain   1:   48.57973 elapsed seconds
Timing for main: time 2016-02-05_12:02:13 on domain   3:     .14361 elapsed seconds
Timing for main: time 2016-02-05_12:02:26 on domain   3:     .12898 elapsed seconds
Timing for main: time 2016-02-05_12:02:40 on domain   3:     .13167 elapsed seconds
Timing for main: time 2016-02-05_12:02:20 on domain   4:     .16433 elapsed seconds
Timing for main: time 2016-02-05_12:02:40 on domain   4:     .15998 elapsed seconds
Timing for main: time 2016-02-05_12:02:40 on domain   2:    1.33888 elapsed seconds
Timing for main: time 2016-02-05_12:02:53 on domain   3:     .14393 elapsed seconds
Timing for main: time 2016-02-05_12:03:06 on domain   3:     .12901 elapsed seconds
Timing for main: time 2016-02-05_12:03:20 on domain   3:     .12901 elapsed seconds
Timing for main: time 2016-02-05_12:03:00 on domain   4:     .16438 elapsed seconds
Timing for main: time 2016-02-05_12:03:20 on domain   4:     .15828 elapsed seconds
Timing for main: time 2016-02-05_12:03:20 on domain   2:    1.32605 elapsed seconds
Timing for main: time 2016-02-05_12:03:33 on domain   3:     .14985 elapsed seconds
Timing for main: time 2016-02-05_12:03:46 on domain   3:     .14317 elapsed seconds
Timing for main: time 2016-02-05_12:04:00 on domain   3:     .14088 elapsed seconds
Timing for main: time 2016-02-05_12:03:40 on domain   4:     .17191 elapsed seconds
Timing for main: time 2016-02-05_12:04:00 on domain   4:     .17402 elapsed seconds
Timing for main: time 2016-02-05_12:04:00 on domain   2:    1.39571 elapsed seconds
Timing for main: time 2016-02-05_12:04:00 on domain   1:    4.34358 elapsed seconds
Timing for main: time 2016-02-05_12:04:13 on domain   3:     .14521 elapsed seconds
Timing for main: time 2016-02-05_12:04:26 on domain   3:     .14098 elapsed seconds
Timing for main: time 2016-02-05_12:04:40 on domain   3:     .14141 elapsed seconds
Timing for main: time 2016-02-05_12:04:20 on domain   4:     .17090 elapsed seconds
Timing for main: time 2016-02-05_12:04:40 on domain   4:     .17190 elapsed seconds
Timing for main: time 2016-02-05_12:04:40 on domain   2:    1.39313 elapsed seconds
Timing for main: time 2016-02-05_12:04:53 on domain   3:     .14843 elapsed seconds
Timing for main: time 2016-02-05_12:05:06 on domain   3:     .13469 elapsed seconds
Timing for main: time 2016-02-05_12:05:20 on domain   3:     .13591 elapsed seconds
Timing for main: time 2016-02-05_12:05:00 on domain   4:     .17605 elapsed seconds
Timing for main: time 2016-02-05_12:05:20 on domain   4:     .17348 elapsed seconds
Timing for main: time 2016-02-05_12:05:20 on domain   2:    1.39597 elapsed seconds
Timing for main: time 2016-02-05_12:05:33 on domain   3:     .14787 elapsed seconds
Timing for main: time 2016-02-05_12:05:46 on domain   3:     .13447 elapsed seconds
Timing for main: time 2016-02-05_12:06:00 on domain   3:     .13472 elapsed seconds
Timing for main: time 2016-02-05_12:05:40 on domain   4:     .16783 elapsed seconds
Timing for main: time 2016-02-05_12:06:00 on domain   4:     .16677 elapsed seconds
Timing for main: time 2016-02-05_12:06:00 on domain   2:    1.35855 elapsed seconds
Timing for main: time 2016-02-05_12:06:00 on domain   1:    4.46074 elapsed seconds
Timing for main: time 2016-02-05_12:06:13 on domain   3:     .14378 elapsed seconds
Timing for main: time 2016-02-05_12:06:26 on domain   3:     .12909 elapsed seconds
Timing for main: time 2016-02-05_12:06:40 on domain   3:     .12870 elapsed seconds
Timing for main: time 2016-02-05_12:06:20 on domain   4:     .16455 elapsed seconds
Timing for main: time 2016-02-05_12:06:40 on domain   4:     .16786 elapsed seconds
Timing for main: time 2016-02-05_12:06:40 on domain   2:    1.34196 elapsed seconds
Timing for main: time 2016-02-05_12:06:53 on domain   3:     .14398 elapsed seconds
Timing for main: time 2016-02-05_12:07:06 on domain   3:     .13071 elapsed seconds
Timing for main: time 2016-02-05_12:07:20 on domain   3:     .14730 elapsed seconds
Timing for main: time 2016-02-05_12:07:00 on domain   4:     .16502 elapsed seconds
Timing for main: time 2016-02-05_12:07:20 on domain   4:     .15950 elapsed seconds
Timing for main: time 2016-02-05_12:07:20 on domain   2:    1.34838 elapsed seconds
Timing for main: time 2016-02-05_12:07:33 on domain   3:     .14400 elapsed seconds
Timing for main: time 2016-02-05_12:07:46 on domain   3:     .12866 elapsed seconds
Timing for main: time 2016-02-05_12:08:00 on domain   3:     .12945 elapsed seconds
Timing for main: time 2016-02-05_12:07:40 on domain   4:     .16722 elapsed seconds
Timing for main: time 2016-02-05_12:08:00 on domain   4:     .15919 elapsed seconds
Timing for main: time 2016-02-05_12:08:00 on domain   2:    1.33108 elapsed seconds
Timing for main: time 2016-02-05_12:08:00 on domain   1:    4.32540 elapsed seconds
Timing for main: time 2016-02-05_12:08:13 on domain   3:     .14425 elapsed seconds
Timing for main: time 2016-02-05_12:08:26 on domain   3:     .13220 elapsed seconds
Timing for main: time 2016-02-05_12:08:40 on domain   3:     .12915 elapsed seconds
Timing for main: time 2016-02-05_12:08:20 on domain   4:     .16408 elapsed seconds
Timing for main: time 2016-02-05_12:08:40 on domain   4:     .16267 elapsed seconds
Timing for main: time 2016-02-05_12:08:40 on domain   2:    1.34282 elapsed seconds
Timing for main: time 2016-02-05_12:08:53 on domain   3:     .14402 elapsed seconds
Timing for main: time 2016-02-05_12:09:06 on domain   3:     .12879 elapsed seconds
Timing for main: time 2016-02-05_12:09:20 on domain   3:     .12944 elapsed seconds
Timing for main: time 2016-02-05_12:09:00 on domain   4:     .16529 elapsed seconds
Timing for main: time 2016-02-05_12:09:20 on domain   4:     .15977 elapsed seconds
Timing for main: time 2016-02-05_12:09:20 on domain   2:    1.39941 elapsed seconds
Timing for main: time 2016-02-05_12:09:33 on domain   3:     .14450 elapsed seconds
Timing for main: time 2016-02-05_12:09:46 on domain   3:     .12859 elapsed seconds
Timing for main: time 2016-02-05_12:10:00 on domain   3:     .12928 elapsed seconds
Timing for main: time 2016-02-05_12:09:40 on domain   4:     .16787 elapsed seconds
Timing for main: time 2016-02-05_12:10:00 on domain   4:     .16441 elapsed seconds
Timing for main: time 2016-02-05_12:10:00 on domain   2:    1.33608 elapsed seconds
Timing for main: time 2016-02-05_12:10:00 on domain   1:    4.38412 elapsed seconds
Timing for main: time 2016-02-05_12:10:13 on domain   3:     .15057 elapsed seconds
Timing for main: time 2016-02-05_12:10:26 on domain   3:     .12815 elapsed seconds
Timing for main: time 2016-02-05_12:10:40 on domain   3:     .12869 elapsed seconds
Timing for main: time 2016-02-05_12:10:20 on domain   4:     .16542 elapsed seconds
Timing for main: time 2016-02-05_12:10:40 on domain   4:     .15975 elapsed seconds
Timing for main: time 2016-02-05_12:10:40 on domain   2:    1.34845 elapsed seconds
Timing for main: time 2016-02-05_12:10:53 on domain   3:     .15503 elapsed seconds
Timing for main: time 2016-02-05_12:11:06 on domain   3:     .13155 elapsed seconds
Timing for main: time 2016-02-05_12:11:20 on domain   3:     .12902 elapsed seconds
Timing for main: time 2016-02-05_12:11:00 on domain   4:     .16661 elapsed seconds
Timing for main: time 2016-02-05_12:11:20 on domain   4:     .15987 elapsed seconds
Timing for main: time 2016-02-05_12:11:20 on domain   2:    1.34402 elapsed seconds
Timing for main: time 2016-02-05_12:11:33 on domain   3:     .14435 elapsed seconds
Timing for main: time 2016-02-05_12:11:46 on domain   3:     .12914 elapsed seconds
Timing for main: time 2016-02-05_12:12:00 on domain   3:     .12881 elapsed seconds
Timing for main: time 2016-02-05_12:11:40 on domain   4:     .16501 elapsed seconds
Timing for main: time 2016-02-05_12:12:00 on domain   4:     .15926 elapsed seconds
Timing for main: time 2016-02-05_12:12:00 on domain   2:    1.32805 elapsed seconds
Timing for main: time 2016-02-05_12:12:00 on domain   1:    4.32178 elapsed seconds
Timing for main: time 2016-02-05_12:12:13 on domain   3:     .15632 elapsed seconds
Timing for main: time 2016-02-05_12:12:26 on domain   3:     .12829 elapsed seconds
Timing for main: time 2016-02-05_12:12:40 on domain   3:     .12920 elapsed seconds
Timing for main: time 2016-02-05_12:12:20 on domain   4:     .16419 elapsed seconds
Timing for main: time 2016-02-05_12:12:40 on domain   4:     .15945 elapsed seconds
Timing for main: time 2016-02-05_12:12:40 on domain   2:    1.34809 elapsed seconds
Timing for main: time 2016-02-05_12:12:53 on domain   3:     .14372 elapsed seconds
Timing for main: time 2016-02-05_12:13:06 on domain   3:     .12984 elapsed seconds
Timing for main: time 2016-02-05_12:13:20 on domain   3:     .12880 elapsed seconds
Timing for main: time 2016-02-05_12:13:00 on domain   4:     .16484 elapsed seconds
Timing for main: time 2016-02-05_12:13:20 on domain   4:     .16212 elapsed seconds
Timing for main: time 2016-02-05_12:13:20 on domain   2:    1.33137 elapsed seconds
Timing for main: time 2016-02-05_12:13:33 on domain   3:     .14399 elapsed seconds
Timing for main: time 2016-02-05_12:13:46 on domain   3:     .12855 elapsed seconds
Timing for main: time 2016-02-05_12:14:00 on domain   3:     .15086 elapsed seconds
Timing for main: time 2016-02-05_12:13:40 on domain   4:     .16559 elapsed seconds
Timing for main: time 2016-02-05_12:14:00 on domain   4:     .15968 elapsed seconds
Timing for main: time 2016-02-05_12:14:00 on domain   2:    1.38864 elapsed seconds
Timing for main: time 2016-02-05_12:14:00 on domain   1:    4.36775 elapsed seconds
Timing for main: time 2016-02-05_12:14:13 on domain   3:     .14422 elapsed seconds
Timing for main: time 2016-02-05_12:14:26 on domain   3:     .13597 elapsed seconds
Timing for main: time 2016-02-05_12:14:40 on domain   3:     .12856 elapsed seconds
Timing for main: time 2016-02-05_12:14:20 on domain   4:     .16493 elapsed seconds
Timing for main: time 2016-02-05_12:14:40 on domain   4:     .16017 elapsed seconds
Timing for main: time 2016-02-05_12:14:40 on domain   2:    1.34288 elapsed seconds
Timing for main: time 2016-02-05_12:14:53 on domain   3:     .14430 elapsed seconds
Timing for main: time 2016-02-05_12:15:06 on domain   3:     .12802 elapsed seconds
Timing for main: time 2016-02-05_12:15:20 on domain   3:     .15617 elapsed seconds
Timing for main: time 2016-02-05_12:15:00 on domain   4:     .17159 elapsed seconds
Timing for main: time 2016-02-05_12:15:20 on domain   4:     .15952 elapsed seconds
Timing for main: time 2016-02-05_12:15:20 on domain   2:    1.38653 elapsed seconds
Timing for main: time 2016-02-05_12:15:33 on domain   3:     .14398 elapsed seconds
Timing for main: time 2016-02-05_12:15:46 on domain   3:     .12835 elapsed seconds
Timing for main: time 2016-02-05_12:16:00 on domain   3:     .12826 elapsed seconds
Timing for main: time 2016-02-05_12:15:40 on domain   4:     .16866 elapsed seconds
Timing for main: time 2016-02-05_12:16:00 on domain   4:     .15980 elapsed seconds
Timing for main: time 2016-02-05_12:16:00 on domain   2:    1.33785 elapsed seconds
Timing for main: time 2016-02-05_12:16:00 on domain   1:    4.36417 elapsed seconds
Timing for main: time 2016-02-05_12:16:13 on domain   3:     .14397 elapsed seconds
Timing for main: time 2016-02-05_12:16:26 on domain   3:     .12855 elapsed seconds
Timing for main: time 2016-02-05_12:16:40 on domain   3:     .12901 elapsed seconds
Timing for main: time 2016-02-05_12:16:20 on domain   4:     .16415 elapsed seconds
Timing for main: time 2016-02-05_12:16:40 on domain   4:     .15958 elapsed seconds
Timing for main: time 2016-02-05_12:16:40 on domain   2:    1.34975 elapsed seconds
Timing for main: time 2016-02-05_12:16:53 on domain   3:     .14464 elapsed seconds
Timing for main: time 2016-02-05_12:17:06 on domain   3:     .12868 elapsed seconds
Timing for main: time 2016-02-05_12:17:20 on domain   3:     .12881 elapsed seconds
Timing for main: time 2016-02-05_12:17:00 on domain   4:     .16493 elapsed seconds
Timing for main: time 2016-02-05_12:17:20 on domain   4:     .15925 elapsed seconds
Timing for main: time 2016-02-05_12:17:20 on domain   2:    1.32814 elapsed seconds
Timing for main: time 2016-02-05_12:17:33 on domain   3:     .14571 elapsed seconds
Timing for main: time 2016-02-05_12:17:46 on domain   3:     .12825 elapsed seconds
Timing for main: time 2016-02-05_12:18:00 on domain   3:     .12842 elapsed seconds
Timing for main: time 2016-02-05_12:17:40 on domain   4:     .16471 elapsed seconds
Timing for main: time 2016-02-05_12:18:00 on domain   4:     .16776 elapsed seconds
Timing for main: time 2016-02-05_12:18:00 on domain   2:    1.33675 elapsed seconds
Timing for main: time 2016-02-05_12:18:00 on domain   1:    4.31587 elapsed seconds
Timing for main: time 2016-02-05_12:18:13 on domain   3:     .14404 elapsed seconds
Timing for main: time 2016-02-05_12:18:26 on domain   3:     .13069 elapsed seconds
Timing for main: time 2016-02-05_12:18:40 on domain   3:     .12837 elapsed seconds
Timing for main: time 2016-02-05_12:18:20 on domain   4:     .16480 elapsed seconds
Timing for main: time 2016-02-05_12:18:40 on domain   4:     .16126 elapsed seconds
Timing for main: time 2016-02-05_12:18:40 on domain   2:    1.33931 elapsed seconds
Timing for main: time 2016-02-05_12:18:53 on domain   3:     .14642 elapsed seconds
Timing for main: time 2016-02-05_12:19:06 on domain   3:     .13108 elapsed seconds
Timing for main: time 2016-02-05_12:19:20 on domain   3:     .12840 elapsed seconds
Timing for main: time 2016-02-05_12:19:00 on domain   4:     .16648 elapsed seconds
Timing for main: time 2016-02-05_12:19:20 on domain   4:     .17001 elapsed seconds
Timing for main: time 2016-02-05_12:19:20 on domain   2:    1.34438 elapsed seconds
Timing for main: time 2016-02-05_12:19:33 on domain   3:     .14406 elapsed seconds
Timing for main: time 2016-02-05_12:19:46 on domain   3:     .12833 elapsed seconds
Timing for main: time 2016-02-05_12:20:00 on domain   3:     .12875 elapsed seconds
Timing for main: time 2016-02-05_12:19:40 on domain   4:     .18206 elapsed seconds
Timing for main: time 2016-02-05_12:20:00 on domain   4:     .18007 elapsed seconds
Timing for main: time 2016-02-05_12:20:00 on domain   2:    1.36613 elapsed seconds
Timing for main: time 2016-02-05_12:20:00 on domain   1:    4.34711 elapsed seconds
Timing for main: time 2016-02-05_12:20:13 on domain   3:     .14393 elapsed seconds
Timing for main: time 2016-02-05_12:20:26 on domain   3:     .13414 elapsed seconds
Timing for main: time 2016-02-05_12:20:40 on domain   3:     .12837 elapsed seconds
Timing for main: time 2016-02-05_12:20:20 on domain   4:     .16480 elapsed seconds
Timing for main: time 2016-02-05_12:20:40 on domain   4:     .16053 elapsed seconds
Timing for main: time 2016-02-05_12:20:40 on domain   2:    1.34105 elapsed seconds
Timing for main: time 2016-02-05_12:20:53 on domain   3:     .14408 elapsed seconds
Timing for main: time 2016-02-05_12:21:06 on domain   3:     .12829 elapsed seconds
Timing for main: time 2016-02-05_12:21:20 on domain   3:     .12901 elapsed seconds
Timing for main: time 2016-02-05_12:21:00 on domain   4:     .16492 elapsed seconds
Timing for main: time 2016-02-05_12:21:20 on domain   4:     .15941 elapsed seconds
Timing for main: time 2016-02-05_12:21:20 on domain   2:    1.34244 elapsed seconds
Timing for main: time 2016-02-05_12:21:33 on domain   3:     .14456 elapsed seconds
Timing for main: time 2016-02-05_12:21:46 on domain   3:     .12867 elapsed seconds
Timing for main: time 2016-02-05_12:22:00 on domain   3:     .12847 elapsed seconds
Timing for main: time 2016-02-05_12:21:40 on domain   4:     .17052 elapsed seconds
Timing for main: time 2016-02-05_12:22:00 on domain   4:     .15971 elapsed seconds
Timing for main: time 2016-02-05_12:22:00 on domain   2:    1.33358 elapsed seconds
Timing for main: time 2016-02-05_12:22:00 on domain   1:    4.31689 elapsed seconds
Timing for main: time 2016-02-05_12:22:13 on domain   3:     .14405 elapsed seconds
Timing for main: time 2016-02-05_12:22:26 on domain   3:     .12817 elapsed seconds
Timing for main: time 2016-02-05_12:22:40 on domain   3:     .12982 elapsed seconds
Timing for main: time 2016-02-05_12:22:20 on domain   4:     .16673 elapsed seconds
Timing for main: time 2016-02-05_12:22:40 on domain   4:     .15973 elapsed seconds
Timing for main: time 2016-02-05_12:22:40 on domain   2:    1.33778 elapsed seconds
Timing for main: time 2016-02-05_12:22:53 on domain   3:     .14443 elapsed seconds
Timing for main: time 2016-02-05_12:23:06 on domain   3:     .13062 elapsed seconds
Timing for main: time 2016-02-05_12:23:20 on domain   3:     .12855 elapsed seconds
Timing for main: time 2016-02-05_12:23:00 on domain   4:     .16457 elapsed seconds
Timing for main: time 2016-02-05_12:23:20 on domain   4:     .15953 elapsed seconds
Timing for main: time 2016-02-05_12:23:20 on domain   2:    1.32928 elapsed seconds
Timing for main: time 2016-02-05_12:23:33 on domain   3:     .14949 elapsed seconds
Timing for main: time 2016-02-05_12:23:46 on domain   3:     .13071 elapsed seconds
Timing for main: time 2016-02-05_12:24:00 on domain   3:     .12899 elapsed seconds
Timing for main: time 2016-02-05_12:23:40 on domain   4:     .16548 elapsed seconds
Timing for main: time 2016-02-05_12:24:00 on domain   4:     .16224 elapsed seconds
Timing for main: time 2016-02-05_12:24:00 on domain   2:    1.33876 elapsed seconds
Timing for main: time 2016-02-05_12:24:00 on domain   1:    4.30671 elapsed seconds
Timing for main: time 2016-02-05_12:24:13 on domain   3:     .14404 elapsed seconds
Timing for main: time 2016-02-05_12:24:26 on domain   3:     .12865 elapsed seconds
Timing for main: time 2016-02-05_12:24:40 on domain   3:     .12855 elapsed seconds
Timing for main: time 2016-02-05_12:24:20 on domain   4:     .16478 elapsed seconds
Timing for main: time 2016-02-05_12:24:40 on domain   4:     .16005 elapsed seconds
Timing for main: time 2016-02-05_12:24:40 on domain   2:    1.33473 elapsed seconds
Timing for main: time 2016-02-05_12:24:53 on domain   3:     .14375 elapsed seconds
Timing for main: time 2016-02-05_12:25:06 on domain   3:     .14074 elapsed seconds
Timing for main: time 2016-02-05_12:25:20 on domain   3:     .12877 elapsed seconds
Timing for main: time 2016-02-05_12:25:00 on domain   4:     .17177 elapsed seconds
Timing for main: time 2016-02-05_12:25:20 on domain   4:     .15927 elapsed seconds
Timing for main: time 2016-02-05_12:25:20 on domain   2:    1.34481 elapsed seconds
Timing for main: time 2016-02-05_12:25:33 on domain   3:     .14938 elapsed seconds
Timing for main: time 2016-02-05_12:25:46 on domain   3:     .12855 elapsed seconds
Timing for main: time 2016-02-05_12:26:00 on domain   3:     .12907 elapsed seconds
Timing for main: time 2016-02-05_12:25:40 on domain   4:     .16526 elapsed seconds
Timing for main: time 2016-02-05_12:26:00 on domain   4:     .15987 elapsed seconds
Timing for main: time 2016-02-05_12:26:00 on domain   2:    1.33439 elapsed seconds
Timing for main: time 2016-02-05_12:26:00 on domain   1:    4.30919 elapsed seconds
Timing for main: time 2016-02-05_12:26:13 on domain   3:     .14454 elapsed seconds
Timing for main: time 2016-02-05_12:26:26 on domain   3:     .13700 elapsed seconds
Timing for main: time 2016-02-05_12:26:40 on domain   3:     .12868 elapsed seconds
Timing for main: time 2016-02-05_12:26:20 on domain   4:     .16491 elapsed seconds
Timing for main: time 2016-02-05_12:26:40 on domain   4:     .15940 elapsed seconds
Timing for main: time 2016-02-05_12:26:40 on domain   2:    1.35035 elapsed seconds
Timing for main: time 2016-02-05_12:26:53 on domain   3:     .14368 elapsed seconds
Timing for main: time 2016-02-05_12:27:06 on domain   3:     .12846 elapsed seconds
Timing for main: time 2016-02-05_12:27:20 on domain   3:     .12856 elapsed seconds
Timing for main: time 2016-02-05_12:27:00 on domain   4:     .16451 elapsed seconds
Timing for main: time 2016-02-05_12:27:20 on domain   4:     .16194 elapsed seconds
Timing for main: time 2016-02-05_12:27:20 on domain   2:    1.32960 elapsed seconds
Timing for main: time 2016-02-05_12:27:33 on domain   3:     .14369 elapsed seconds
Timing for main: time 2016-02-05_12:27:46 on domain   3:     .12862 elapsed seconds
Timing for main: time 2016-02-05_12:28:00 on domain   3:     .12854 elapsed seconds
Timing for main: time 2016-02-05_12:27:40 on domain   4:     .16534 elapsed seconds
Timing for main: time 2016-02-05_12:28:00 on domain   4:     .16005 elapsed seconds
Timing for main: time 2016-02-05_12:28:00 on domain   2:    1.32740 elapsed seconds
Timing for main: time 2016-02-05_12:28:00 on domain   1:    4.30408 elapsed seconds
  photolysis_driver: called for domain  1
Timing for main: time 2016-02-05_12:28:13 on domain   3:     .14378 elapsed seconds
Timing for main: time 2016-02-05_12:28:26 on domain   3:     .12872 elapsed seconds
Timing for main: time 2016-02-05_12:28:40 on domain   3:     .12845 elapsed seconds
Timing for main: time 2016-02-05_12:28:20 on domain   4:     .16411 elapsed seconds
Timing for main: time 2016-02-05_12:28:40 on domain   4:     .15966 elapsed seconds
Timing for main: time 2016-02-05_12:28:40 on domain   2:    1.33552 elapsed seconds
Timing for main: time 2016-02-05_12:28:53 on domain   3:     .14400 elapsed seconds
Timing for main: time 2016-02-05_12:29:06 on domain   3:     .13760 elapsed seconds
Timing for main: time 2016-02-05_12:29:20 on domain   3:     .12848 elapsed seconds
Timing for main: time 2016-02-05_12:29:00 on domain   4:     .16466 elapsed seconds
Timing for main: time 2016-02-05_12:29:20 on domain   4:     .15964 elapsed seconds
Timing for main: time 2016-02-05_12:29:20 on domain   2:    1.33596 elapsed seconds
  photolysis_driver: called for domain  2
Timing for main: time 2016-02-05_12:29:33 on domain   3:     .14399 elapsed seconds
Timing for main: time 2016-02-05_12:29:46 on domain   3:     .12860 elapsed seconds
  photolysis_driver: called for domain  3
Timing for main: time 2016-02-05_12:30:00 on domain   3:     .71306 elapsed seconds
Timing for main: time 2016-02-05_12:29:40 on domain   4:     .16489 elapsed seconds
  photolysis_driver: called for domain  4
Timing for main: time 2016-02-05_12:30:00 on domain   4:     .86040 elapsed seconds
Timing for main: time 2016-02-05_12:30:00 on domain   2:    3.34097 elapsed seconds
Timing for main: time 2016-02-05_12:30:00 on domain   1:    6.76833 elapsed seconds
Timing for main: time 2016-02-05_12:30:13 on domain   3:     .25976 elapsed seconds
Timing for main: time 2016-02-05_12:30:26 on domain   3:     .12820 elapsed seconds
Timing for main: time 2016-02-05_12:30:40 on domain   3:     .13375 elapsed seconds
Timing for main: time 2016-02-05_12:30:20 on domain   4:     .30463 elapsed seconds
Timing for main: time 2016-02-05_12:30:40 on domain   4:     .16930 elapsed seconds
Timing for main: time 2016-02-05_12:30:40 on domain   2:    1.74808 elapsed seconds
Timing for main: time 2016-02-05_12:30:53 on domain   3:     .16944 elapsed seconds
Timing for main: time 2016-02-05_12:31:06 on domain   3:     .18838 elapsed seconds
Timing for main: time 2016-02-05_12:31:20 on domain   3:     .12823 elapsed seconds
Timing for main: time 2016-02-05_12:31:00 on domain   4:     .16452 elapsed seconds
Timing for main: time 2016-02-05_12:31:20 on domain   4:     .15959 elapsed seconds
Timing for main: time 2016-02-05_12:31:20 on domain   2:    1.41137 elapsed seconds
Timing for main: time 2016-02-05_12:31:33 on domain   3:     .14256 elapsed seconds
Timing for main: time 2016-02-05_12:31:46 on domain   3:     .12774 elapsed seconds
Timing for main: time 2016-02-05_12:32:00 on domain   3:     .12828 elapsed seconds
Timing for main: time 2016-02-05_12:31:40 on domain   4:     .16471 elapsed seconds
Timing for main: time 2016-02-05_12:32:00 on domain   4:     .15914 elapsed seconds
Timing for main: time 2016-02-05_12:32:00 on domain   2:    1.40349 elapsed seconds
Timing for main: time 2016-02-05_12:32:00 on domain   1:    4.96347 elapsed seconds
Timing for main: time 2016-02-05_12:32:13 on domain   3:     .14495 elapsed seconds
Timing for main: time 2016-02-05_12:32:26 on domain   3:     .12987 elapsed seconds
Timing for main: time 2016-02-05_12:32:40 on domain   3:     .12664 elapsed seconds
Timing for main: time 2016-02-05_12:32:20 on domain   4:     .16497 elapsed seconds
Timing for main: time 2016-02-05_12:32:40 on domain   4:     .15750 elapsed seconds
Timing for main: time 2016-02-05_12:32:40 on domain   2:    1.34460 elapsed seconds
Timing for main: time 2016-02-05_12:32:53 on domain   3:     .14283 elapsed seconds
Timing for main: time 2016-02-05_12:33:06 on domain   3:     .12906 elapsed seconds
Timing for main: time 2016-02-05_12:33:20 on domain   3:     .12798 elapsed seconds
Timing for main: time 2016-02-05_12:33:00 on domain   4:     .16375 elapsed seconds
Timing for main: time 2016-02-05_12:33:20 on domain   4:     .15987 elapsed seconds
Timing for main: time 2016-02-05_12:33:20 on domain   2:    1.32533 elapsed seconds
Timing for main: time 2016-02-05_12:33:33 on domain   3:     .14318 elapsed seconds
Timing for main: time 2016-02-05_12:33:46 on domain   3:     .12866 elapsed seconds
Timing for main: time 2016-02-05_12:34:00 on domain   3:     .12856 elapsed seconds
Timing for main: time 2016-02-05_12:33:40 on domain   4:     .16445 elapsed seconds
Timing for main: time 2016-02-05_12:34:00 on domain   4:     .19090 elapsed seconds
Timing for main: time 2016-02-05_12:34:00 on domain   2:    1.36126 elapsed seconds
Timing for main: time 2016-02-05_12:34:00 on domain   1:    4.33523 elapsed seconds
Timing for main: time 2016-02-05_12:34:13 on domain   3:     .14319 elapsed seconds
Timing for main: time 2016-02-05_12:34:26 on domain   3:     .12873 elapsed seconds
Timing for main: time 2016-02-05_12:34:40 on domain   3:     .12778 elapsed seconds
Timing for main: time 2016-02-05_12:34:20 on domain   4:     .16487 elapsed seconds
Timing for main: time 2016-02-05_12:34:40 on domain   4:     .16036 elapsed seconds
Timing for main: time 2016-02-05_12:34:40 on domain   2:    1.33427 elapsed seconds
Timing for main: time 2016-02-05_12:34:53 on domain   3:     .14298 elapsed seconds
Timing for main: time 2016-02-05_12:35:06 on domain   3:     .13107 elapsed seconds
Timing for main: time 2016-02-05_12:35:20 on domain   3:     .13218 elapsed seconds
Timing for main: time 2016-02-05_12:35:00 on domain   4:     .17077 elapsed seconds
Timing for main: time 2016-02-05_12:35:20 on domain   4:     .15899 elapsed seconds
Timing for main: time 2016-02-05_12:35:20 on domain   2:    1.34128 elapsed seconds
Timing for main: time 2016-02-05_12:35:33 on domain   3:     .14472 elapsed seconds
Timing for main: time 2016-02-05_12:35:46 on domain   3:     .13338 elapsed seconds
Timing for main: time 2016-02-05_12:36:00 on domain   3:     .12799 elapsed seconds
Timing for main: time 2016-02-05_12:35:40 on domain   4:     .16403 elapsed seconds
Timing for main: time 2016-02-05_12:36:00 on domain   4:     .15857 elapsed seconds
Timing for main: time 2016-02-05_12:36:00 on domain   2:    1.32965 elapsed seconds
Timing for main: time 2016-02-05_12:36:00 on domain   1:    4.35618 elapsed seconds
Timing for main: time 2016-02-05_12:36:13 on domain   3:     .14418 elapsed seconds
Timing for main: time 2016-02-05_12:36:26 on domain   3:     .12959 elapsed seconds
Timing for main: time 2016-02-05_12:36:40 on domain   3:     .13061 elapsed seconds
Timing for main: time 2016-02-05_12:36:20 on domain   4:     .16372 elapsed seconds
Timing for main: time 2016-02-05_12:36:40 on domain   4:     .15863 elapsed seconds
Timing for main: time 2016-02-05_12:36:40 on domain   2:    1.33516 elapsed seconds
Timing for main: time 2016-02-05_12:36:53 on domain   3:     .14360 elapsed seconds
Timing for main: time 2016-02-05_12:37:06 on domain   3:     .12985 elapsed seconds
Timing for main: time 2016-02-05_12:37:20 on domain   3:     .12790 elapsed seconds
Timing for main: time 2016-02-05_12:37:00 on domain   4:     .16380 elapsed seconds
Timing for main: time 2016-02-05_12:37:20 on domain   4:     .15875 elapsed seconds
Timing for main: time 2016-02-05_12:37:20 on domain   2:    1.33172 elapsed seconds
Timing for main: time 2016-02-05_12:37:33 on domain   3:     .14273 elapsed seconds
Timing for main: time 2016-02-05_12:37:46 on domain   3:     .13938 elapsed seconds
Timing for main: time 2016-02-05_12:38:00 on domain   3:     .12799 elapsed seconds
Timing for main: time 2016-02-05_12:37:40 on domain   4:     .16422 elapsed seconds
Timing for main: time 2016-02-05_12:38:00 on domain   4:     .16095 elapsed seconds
Timing for main: time 2016-02-05_12:38:00 on domain   2:    1.33586 elapsed seconds
Timing for main: time 2016-02-05_12:38:00 on domain   1:    4.29989 elapsed seconds
Timing for main: time 2016-02-05_12:38:13 on domain   3:     .14344 elapsed seconds
Timing for main: time 2016-02-05_12:38:26 on domain   3:     .12788 elapsed seconds
Timing for main: time 2016-02-05_12:38:40 on domain   3:     .12786 elapsed seconds
Timing for main: time 2016-02-05_12:38:20 on domain   4:     .16499 elapsed seconds
Timing for main: time 2016-02-05_12:38:40 on domain   4:     .15889 elapsed seconds
Timing for main: time 2016-02-05_12:38:40 on domain   2:    1.33215 elapsed seconds
Timing for main: time 2016-02-05_12:38:53 on domain   3:     .14307 elapsed seconds
Timing for main: time 2016-02-05_12:39:06 on domain   3:     .12813 elapsed seconds
Timing for main: time 2016-02-05_12:39:20 on domain   3:     .13536 elapsed seconds
Timing for main: time 2016-02-05_12:39:00 on domain   4:     .16393 elapsed seconds
Timing for main: time 2016-02-05_12:39:20 on domain   4:     .15868 elapsed seconds
Timing for main: time 2016-02-05_12:39:20 on domain   2:    1.33042 elapsed seconds
Timing for main: time 2016-02-05_12:39:33 on domain   3:     .14317 elapsed seconds
Timing for main: time 2016-02-05_12:39:46 on domain   3:     .12789 elapsed seconds
Timing for main: time 2016-02-05_12:40:00 on domain   3:     .13111 elapsed seconds
Timing for main: time 2016-02-05_12:39:40 on domain   4:     .16375 elapsed seconds
Timing for main: time 2016-02-05_12:40:00 on domain   4:     .16592 elapsed seconds
Timing for main: time 2016-02-05_12:40:00 on domain   2:    1.33247 elapsed seconds
Timing for main: time 2016-02-05_12:40:00 on domain   1:    4.29219 elapsed seconds
Timing for main: time 2016-02-05_12:40:13 on domain   3:     .14295 elapsed seconds
Timing for main: time 2016-02-05_12:40:26 on domain   3:     .12800 elapsed seconds
Timing for main: time 2016-02-05_12:40:40 on domain   3:     .13401 elapsed seconds
Timing for main: time 2016-02-05_12:40:20 on domain   4:     .16406 elapsed seconds
Timing for main: time 2016-02-05_12:40:40 on domain   4:     .16383 elapsed seconds
Timing for main: time 2016-02-05_12:40:40 on domain   2:    1.34257 elapsed seconds
Timing for main: time 2016-02-05_12:40:53 on domain   3:     .14953 elapsed seconds
Timing for main: time 2016-02-05_12:41:06 on domain   3:     .12826 elapsed seconds
Timing for main: time 2016-02-05_12:41:20 on domain   3:     .12795 elapsed seconds
Timing for main: time 2016-02-05_12:41:00 on domain   4:     .16461 elapsed seconds
Timing for main: time 2016-02-05_12:41:20 on domain   4:     .15823 elapsed seconds
Timing for main: time 2016-02-05_12:41:20 on domain   2:    1.32948 elapsed seconds
Timing for main: time 2016-02-05_12:41:33 on domain   3:     .14297 elapsed seconds
Timing for main: time 2016-02-05_12:41:46 on domain   3:     .12997 elapsed seconds
Timing for main: time 2016-02-05_12:42:00 on domain   3:     .12939 elapsed seconds
Timing for main: time 2016-02-05_12:41:40 on domain   4:     .17418 elapsed seconds
Timing for main: time 2016-02-05_12:42:00 on domain   4:     .15871 elapsed seconds
Timing for main: time 2016-02-05_12:42:00 on domain   2:    1.33565 elapsed seconds
Timing for main: time 2016-02-05_12:42:00 on domain   1:    4.30920 elapsed seconds
Timing for main: time 2016-02-05_12:42:13 on domain   3:     .14292 elapsed seconds
Timing for main: time 2016-02-05_12:42:26 on domain   3:     .12817 elapsed seconds
Timing for main: time 2016-02-05_12:42:40 on domain   3:     .12842 elapsed seconds
Timing for main: time 2016-02-05_12:42:20 on domain   4:     .17729 elapsed seconds
Timing for main: time 2016-02-05_12:42:40 on domain   4:     .15865 elapsed seconds
Timing for main: time 2016-02-05_12:42:40 on domain   2:    1.35342 elapsed seconds
Timing for main: time 2016-02-05_12:42:53 on domain   3:     .15890 elapsed seconds
Timing for main: time 2016-02-05_12:43:06 on domain   3:     .13681 elapsed seconds
Timing for main: time 2016-02-05_12:43:20 on domain   3:     .13382 elapsed seconds
Timing for main: time 2016-02-05_12:43:00 on domain   4:     .17471 elapsed seconds
Timing for main: time 2016-02-05_12:43:20 on domain   4:     .15858 elapsed seconds
Timing for main: time 2016-02-05_12:43:20 on domain   2:    1.43401 elapsed seconds
Timing for main: time 2016-02-05_12:43:33 on domain   3:     .14302 elapsed seconds
Timing for main: time 2016-02-05_12:43:46 on domain   3:     .12831 elapsed seconds
Timing for main: time 2016-02-05_12:44:00 on domain   3:     .12794 elapsed seconds
Timing for main: time 2016-02-05_12:43:40 on domain   4:     .16577 elapsed seconds
Timing for main: time 2016-02-05_12:44:00 on domain   4:     .15893 elapsed seconds
Timing for main: time 2016-02-05_12:44:00 on domain   2:    1.32482 elapsed seconds
Timing for main: time 2016-02-05_12:44:00 on domain   1:    4.40967 elapsed seconds
Timing for main: time 2016-02-05_12:44:13 on domain   3:     .14332 elapsed seconds
Timing for main: time 2016-02-05_12:44:26 on domain   3:     .12796 elapsed seconds
Timing for main: time 2016-02-05_12:44:40 on domain   3:     .12790 elapsed seconds
Timing for main: time 2016-02-05_12:44:20 on domain   4:     .16399 elapsed seconds
Timing for main: time 2016-02-05_12:44:40 on domain   4:     .16929 elapsed seconds
Timing for main: time 2016-02-05_12:44:40 on domain   2:    1.34044 elapsed seconds
Timing for main: time 2016-02-05_12:44:53 on domain   3:     .14313 elapsed seconds
Timing for main: time 2016-02-05_12:45:06 on domain   3:     .13207 elapsed seconds
Timing for main: time 2016-02-05_12:45:20 on domain   3:     .12913 elapsed seconds
Timing for main: time 2016-02-05_12:45:00 on domain   4:     .17097 elapsed seconds
Timing for main: time 2016-02-05_12:45:20 on domain   4:     .15838 elapsed seconds
Timing for main: time 2016-02-05_12:45:20 on domain   2:    1.34005 elapsed seconds
Timing for main: time 2016-02-05_12:45:33 on domain   3:     .14324 elapsed seconds
Timing for main: time 2016-02-05_12:45:46 on domain   3:     .12790 elapsed seconds
Timing for main: time 2016-02-05_12:46:00 on domain   3:     .13354 elapsed seconds
Timing for main: time 2016-02-05_12:45:40 on domain   4:     .16408 elapsed seconds
Timing for main: time 2016-02-05_12:46:00 on domain   4:     .15903 elapsed seconds
Timing for main: time 2016-02-05_12:46:00 on domain   2:    1.32810 elapsed seconds
Timing for main: time 2016-02-05_12:46:00 on domain   1:    4.30574 elapsed seconds
Timing for main: time 2016-02-05_12:46:13 on domain   3:     .14312 elapsed seconds
Timing for main: time 2016-02-05_12:46:26 on domain   3:     .13833 elapsed seconds
Timing for main: time 2016-02-05_12:46:40 on domain   3:     .14517 elapsed seconds
Timing for main: time 2016-02-05_12:46:20 on domain   4:     .16455 elapsed seconds
Timing for main: time 2016-02-05_12:46:40 on domain   4:     .15837 elapsed seconds
Timing for main: time 2016-02-05_12:46:40 on domain   2:    1.35815 elapsed seconds
Timing for main: time 2016-02-05_12:46:53 on domain   3:     .15754 elapsed seconds
Timing for main: time 2016-02-05_12:47:06 on domain   3:     .12847 elapsed seconds
Timing for main: time 2016-02-05_12:47:20 on domain   3:     .12802 elapsed seconds
Timing for main: time 2016-02-05_12:47:00 on domain   4:     .17585 elapsed seconds
Timing for main: time 2016-02-05_12:47:20 on domain   4:     .15962 elapsed seconds
Timing for main: time 2016-02-05_12:47:20 on domain   2:    1.35119 elapsed seconds
Timing for main: time 2016-02-05_12:47:33 on domain   3:     .14517 elapsed seconds
Timing for main: time 2016-02-05_12:47:46 on domain   3:     .12784 elapsed seconds
Timing for main: time 2016-02-05_12:48:00 on domain   3:     .12817 elapsed seconds
Timing for main: time 2016-02-05_12:47:40 on domain   4:     .16415 elapsed seconds
Timing for main: time 2016-02-05_12:48:00 on domain   4:     .15844 elapsed seconds
Timing for main: time 2016-02-05_12:48:00 on domain   2:    1.33154 elapsed seconds
Timing for main: time 2016-02-05_12:48:00 on domain   1:    4.34260 elapsed seconds
Timing for main: time 2016-02-05_12:48:13 on domain   3:     .14333 elapsed seconds
Timing for main: time 2016-02-05_12:48:26 on domain   3:     .12786 elapsed seconds
Timing for main: time 2016-02-05_12:48:40 on domain   3:     .12807 elapsed seconds
Timing for main: time 2016-02-05_12:48:20 on domain   4:     .16375 elapsed seconds
Timing for main: time 2016-02-05_12:48:40 on domain   4:     .15878 elapsed seconds
Timing for main: time 2016-02-05_12:48:40 on domain   2:    1.33099 elapsed seconds
Timing for main: time 2016-02-05_12:48:53 on domain   3:     .14333 elapsed seconds
Timing for main: time 2016-02-05_12:49:06 on domain   3:     .13161 elapsed seconds
Timing for main: time 2016-02-05_12:49:20 on domain   3:     .12799 elapsed seconds
Timing for main: time 2016-02-05_12:49:00 on domain   4:     .16436 elapsed seconds
Timing for main: time 2016-02-05_12:49:20 on domain   4:     .15947 elapsed seconds
Timing for main: time 2016-02-05_12:49:20 on domain   2:    1.33026 elapsed seconds
Timing for main: time 2016-02-05_12:49:33 on domain   3:     .14320 elapsed seconds
Timing for main: time 2016-02-05_12:49:46 on domain   3:     .12792 elapsed seconds
Timing for main: time 2016-02-05_12:50:00 on domain   3:     .12788 elapsed seconds
Timing for main: time 2016-02-05_12:49:40 on domain   4:     .16403 elapsed seconds
Timing for main: time 2016-02-05_12:50:00 on domain   4:     .16592 elapsed seconds
Timing for main: time 2016-02-05_12:50:00 on domain   2:    1.32958 elapsed seconds
Timing for main: time 2016-02-05_12:50:00 on domain   1:    4.28784 elapsed seconds
Timing for main: time 2016-02-05_12:50:13 on domain   3:     .14630 elapsed seconds
Timing for main: time 2016-02-05_12:50:26 on domain   3:     .12835 elapsed seconds
Timing for main: time 2016-02-05_12:50:40 on domain   3:     .12831 elapsed seconds
Timing for main: time 2016-02-05_12:50:20 on domain   4:     .16409 elapsed seconds
Timing for main: time 2016-02-05_12:50:40 on domain   4:     .15852 elapsed seconds
Timing for main: time 2016-02-05_12:50:40 on domain   2:    1.33371 elapsed seconds
Timing for main: time 2016-02-05_12:50:53 on domain   3:     .14285 elapsed seconds
Timing for main: time 2016-02-05_12:51:06 on domain   3:     .13351 elapsed seconds
Timing for main: time 2016-02-05_12:51:20 on domain   3:     .12785 elapsed seconds
Timing for main: time 2016-02-05_12:51:00 on domain   4:     .16393 elapsed seconds
Timing for main: time 2016-02-05_12:51:20 on domain   4:     .15860 elapsed seconds
Timing for main: time 2016-02-05_12:51:20 on domain   2:    1.32805 elapsed seconds
Timing for main: time 2016-02-05_12:51:33 on domain   3:     .14313 elapsed seconds
Timing for main: time 2016-02-05_12:51:46 on domain   3:     .12777 elapsed seconds
Timing for main: time 2016-02-05_12:52:00 on domain   3:     .12843 elapsed seconds
Timing for main: time 2016-02-05_12:51:40 on domain   4:     .16405 elapsed seconds
Timing for main: time 2016-02-05_12:52:00 on domain   4:     .15861 elapsed seconds
Timing for main: time 2016-02-05_12:52:00 on domain   2:    1.33230 elapsed seconds
Timing for main: time 2016-02-05_12:52:00 on domain   1:    4.29077 elapsed seconds
Timing for main: time 2016-02-05_12:52:13 on domain   3:     .14306 elapsed seconds
Timing for main: time 2016-02-05_12:52:26 on domain   3:     .12804 elapsed seconds
Timing for main: time 2016-02-05_12:52:40 on domain   3:     .12812 elapsed seconds
Timing for main: time 2016-02-05_12:52:20 on domain   4:     .16442 elapsed seconds
Timing for main: time 2016-02-05_12:52:40 on domain   4:     .15877 elapsed seconds
Timing for main: time 2016-02-05_12:52:40 on domain   2:    1.33092 elapsed seconds
Timing for main: time 2016-02-05_12:52:53 on domain   3:     .14318 elapsed seconds
Timing for main: time 2016-02-05_12:53:06 on domain   3:     .12821 elapsed seconds
Timing for main: time 2016-02-05_12:53:20 on domain   3:     .12801 elapsed seconds
Timing for main: time 2016-02-05_12:53:00 on domain   4:     .16410 elapsed seconds
Timing for main: time 2016-02-05_12:53:20 on domain   4:     .15859 elapsed seconds
Timing for main: time 2016-02-05_12:53:20 on domain   2:    1.33059 elapsed seconds
Timing for main: time 2016-02-05_12:53:33 on domain   3:     .14541 elapsed seconds
Timing for main: time 2016-02-05_12:53:46 on domain   3:     .12811 elapsed seconds
Timing for main: time 2016-02-05_12:54:00 on domain   3:     .12801 elapsed seconds
Timing for main: time 2016-02-05_12:53:40 on domain   4:     .16401 elapsed seconds
Timing for main: time 2016-02-05_12:54:00 on domain   4:     .15849 elapsed seconds
Timing for main: time 2016-02-05_12:54:00 on domain   2:    1.32567 elapsed seconds
Timing for main: time 2016-02-05_12:54:00 on domain   1:    4.28902 elapsed seconds
Timing for main: time 2016-02-05_12:54:13 on domain   3:     .14321 elapsed seconds
Timing for main: time 2016-02-05_12:54:26 on domain   3:     .12803 elapsed seconds
Timing for main: time 2016-02-05_12:54:40 on domain   3:     .12864 elapsed seconds
Timing for main: time 2016-02-05_12:54:20 on domain   4:     .16406 elapsed seconds
Timing for main: time 2016-02-05_12:54:40 on domain   4:     .15894 elapsed seconds
Timing for main: time 2016-02-05_12:54:40 on domain   2:    1.33196 elapsed seconds
Timing for main: time 2016-02-05_12:54:53 on domain   3:     .14442 elapsed seconds
Timing for main: time 2016-02-05_12:55:06 on domain   3:     .12791 elapsed seconds
Timing for main: time 2016-02-05_12:55:20 on domain   3:     .12804 elapsed seconds
Timing for main: time 2016-02-05_12:55:00 on domain   4:     .17090 elapsed seconds
Timing for main: time 2016-02-05_12:55:20 on domain   4:     .15844 elapsed seconds
Timing for main: time 2016-02-05_12:55:20 on domain   2:    1.33160 elapsed seconds
Timing for main: time 2016-02-05_12:55:33 on domain   3:     .18058 elapsed seconds
Timing for main: time 2016-02-05_12:55:46 on domain   3:     .12588 elapsed seconds
Timing for main: time 2016-02-05_12:56:00 on domain   3:     .12799 elapsed seconds
Timing for main: time 2016-02-05_12:55:40 on domain   4:     .16541 elapsed seconds
Timing for main: time 2016-02-05_12:56:00 on domain   4:     .17101 elapsed seconds
Timing for main: time 2016-02-05_12:56:00 on domain   2:    1.40274 elapsed seconds
Timing for main: time 2016-02-05_12:56:00 on domain   1:    4.36314 elapsed seconds
Timing for main: time 2016-02-05_12:56:13 on domain   3:     .14884 elapsed seconds
Timing for main: time 2016-02-05_12:56:26 on domain   3:     .12811 elapsed seconds
Timing for main: time 2016-02-05_12:56:40 on domain   3:     .12992 elapsed seconds
Timing for main: time 2016-02-05_12:56:20 on domain   4:     .16396 elapsed seconds
Timing for main: time 2016-02-05_12:56:40 on domain   4:     .15889 elapsed seconds
Timing for main: time 2016-02-05_12:56:40 on domain   2:    1.33843 elapsed seconds
Timing for main: time 2016-02-05_12:56:53 on domain   3:     .14301 elapsed seconds
Timing for main: time 2016-02-05_12:57:06 on domain   3:     .12791 elapsed seconds
Timing for main: time 2016-02-05_12:57:20 on domain   3:     .12813 elapsed seconds
Timing for main: time 2016-02-05_12:57:00 on domain   4:     .16467 elapsed seconds
Timing for main: time 2016-02-05_12:57:20 on domain   4:     .15896 elapsed seconds
Timing for main: time 2016-02-05_12:57:20 on domain   2:    1.32575 elapsed seconds
Timing for main: time 2016-02-05_12:57:33 on domain   3:     .14315 elapsed seconds
Timing for main: time 2016-02-05_12:57:46 on domain   3:     .12790 elapsed seconds
Timing for main: time 2016-02-05_12:58:00 on domain   3:     .12797 elapsed seconds
Timing for main: time 2016-02-05_12:57:40 on domain   4:     .16412 elapsed seconds
Timing for main: time 2016-02-05_12:58:00 on domain   4:     .15838 elapsed seconds
Timing for main: time 2016-02-05_12:58:00 on domain   2:    1.32643 elapsed seconds
Timing for main: time 2016-02-05_12:58:00 on domain   1:    4.28743 elapsed seconds
  photolysis_driver: called for domain  1
Timing for main: time 2016-02-05_12:58:13 on domain   3:     .14306 elapsed seconds
Timing for main: time 2016-02-05_12:58:26 on domain   3:     .12900 elapsed seconds
Timing for main: time 2016-02-05_12:58:40 on domain   3:     .12846 elapsed seconds
Timing for main: time 2016-02-05_12:58:20 on domain   4:     .16421 elapsed seconds
Timing for main: time 2016-02-05_12:58:40 on domain   4:     .15871 elapsed seconds
Timing for main: time 2016-02-05_12:58:40 on domain   2:    1.34973 elapsed seconds
Timing for main: time 2016-02-05_12:58:53 on domain   3:     .14313 elapsed seconds
Timing for main: time 2016-02-05_12:59:06 on domain   3:     .12776 elapsed seconds
Timing for main: time 2016-02-05_12:59:20 on domain   3:     .13095 elapsed seconds
Timing for main: time 2016-02-05_12:59:00 on domain   4:     .16402 elapsed seconds
Timing for main: time 2016-02-05_12:59:20 on domain   4:     .15917 elapsed seconds
Timing for main: time 2016-02-05_12:59:20 on domain   2:    1.32772 elapsed seconds
  photolysis_driver: called for domain  2
Timing for main: time 2016-02-05_12:59:33 on domain   3:     .14450 elapsed seconds
Timing for main: time 2016-02-05_12:59:46 on domain   3:     .13093 elapsed seconds
  photolysis_driver: called for domain  3
Timing for main: time 2016-02-05_13:00:00 on domain   3:     .72200 elapsed seconds
Timing for main: time 2016-02-05_12:59:40 on domain   4:     .16410 elapsed seconds
  photolysis_driver: called for domain  4
Timing for main: time 2016-02-05_13:00:00 on domain   4:     .86314 elapsed seconds
Timing for main: time 2016-02-05_13:00:00 on domain   2:    3.36811 elapsed seconds
Timing for main: time 2016-02-05_13:00:00 on domain   1:    6.79943 elapsed seconds
Timing for Writing wrfout_d01_2016-02-05_13:00:00 for domain        1:    1.58402 elapsed seconds
  HOURLY EMISSIONS UPDATE TIME     3600.0        .0
 mediation_integrate: med_read_wrf_chem_emissions: Read emissions for time 2016-02-05_13:00:00
 **WARNING** Time in input file not being checked **WARNING**
Timing for Writing wrfout_d02_2016-02-05_13:00:00 for domain        2:    2.15629 elapsed seconds
Timing for Writing wrfout_d03_2016-02-05_13:00:00 for domain        3:    2.23403 elapsed seconds
Timing for main: time 2016-02-05_13:00:13 on domain   3:    2.50560 elapsed seconds
Timing for main: time 2016-02-05_13:00:26 on domain   3:     .15231 elapsed seconds
Timing for main: time 2016-02-05_13:00:40 on domain   3:     .14753 elapsed seconds
Timing for Writing wrfout_d04_2016-02-05_13:00:00 for domain        4:    2.20105 elapsed seconds
Timing for main: time 2016-02-05_13:00:20 on domain   4:    2.52848 elapsed seconds
Timing for main: time 2016-02-05_13:00:40 on domain   4:     .18022 elapsed seconds
Timing for main: time 2016-02-05_13:00:40 on domain   2:    8.47848 elapsed seconds
Timing for main: time 2016-02-05_13:00:53 on domain   3:     .14395 elapsed seconds
Timing for main: time 2016-02-05_13:01:06 on domain   3:     .12742 elapsed seconds
Timing for main: time 2016-02-05_13:01:20 on domain   3:     .13596 elapsed seconds
Timing for main: time 2016-02-05_13:01:00 on domain   4:     .16716 elapsed seconds
Timing for main: time 2016-02-05_13:01:20 on domain   4:     .15937 elapsed seconds
Timing for main: time 2016-02-05_13:01:20 on domain   2:    1.34936 elapsed seconds
Timing for main: time 2016-02-05_13:01:33 on domain   3:     .14311 elapsed seconds
Timing for main: time 2016-02-05_13:01:46 on domain   3:     .12792 elapsed seconds
Timing for main: time 2016-02-05_13:02:00 on domain   3:     .13685 elapsed seconds
Timing for main: time 2016-02-05_13:01:40 on domain   4:     .16435 elapsed seconds
Timing for main: time 2016-02-05_13:02:00 on domain   4:     .15866 elapsed seconds
Timing for main: time 2016-02-05_13:02:00 on domain   2:    1.33272 elapsed seconds
Timing for main: time 2016-02-05_13:02:00 on domain   1:   13.80829 elapsed seconds
Timing for main: time 2016-02-05_13:02:13 on domain   3:     .14317 elapsed seconds
Timing for main: time 2016-02-05_13:02:26 on domain   3:     .12778 elapsed seconds
Timing for main: time 2016-02-05_13:02:40 on domain   3:     .12822 elapsed seconds
Timing for main: time 2016-02-05_13:02:20 on domain   4:     .16409 elapsed seconds
Timing for main: time 2016-02-05_13:02:40 on domain   4:     .15895 elapsed seconds
Timing for main: time 2016-02-05_13:02:40 on domain   2:    1.33063 elapsed seconds
Timing for main: time 2016-02-05_13:02:53 on domain   3:     .14413 elapsed seconds
Timing for main: time 2016-02-05_13:03:06 on domain   3:     .13067 elapsed seconds
Timing for main: time 2016-02-05_13:03:20 on domain   3:     .12843 elapsed seconds
Timing for main: time 2016-02-05_13:03:00 on domain   4:     .16415 elapsed seconds
Timing for main: time 2016-02-05_13:03:20 on domain   4:     .15867 elapsed seconds
Timing for main: time 2016-02-05_13:03:20 on domain   2:    1.33202 elapsed seconds
Timing for main: time 2016-02-05_13:03:33 on domain   3:     .14323 elapsed seconds
Timing for main: time 2016-02-05_13:03:46 on domain   3:     .12796 elapsed seconds
Timing for main: time 2016-02-05_13:04:00 on domain   3:     .12789 elapsed seconds
Timing for main: time 2016-02-05_13:03:40 on domain   4:     .16768 elapsed seconds
Timing for main: time 2016-02-05_13:04:00 on domain   4:     .15954 elapsed seconds
Timing for main: time 2016-02-05_13:04:00 on domain   2:    1.33591 elapsed seconds
Timing for main: time 2016-02-05_13:04:00 on domain   1:    4.29540 elapsed seconds
Timing for main: time 2016-02-05_13:04:13 on domain   3:     .14322 elapsed seconds
Timing for main: time 2016-02-05_13:04:26 on domain   3:     .12792 elapsed seconds
Timing for main: time 2016-02-05_13:04:40 on domain   3:     .12899 elapsed seconds
Timing for main: time 2016-02-05_13:04:20 on domain   4:     .19504 elapsed seconds
Timing for main: time 2016-02-05_13:04:40 on domain   4:     .19257 elapsed seconds
Timing for main: time 2016-02-05_13:04:40 on domain   2:    1.39895 elapsed seconds
Timing for main: time 2016-02-05_13:04:53 on domain   3:     .14310 elapsed seconds
Timing for main: time 2016-02-05_13:05:06 on domain   3:     .12991 elapsed seconds
Timing for main: time 2016-02-05_13:05:20 on domain   3:     .12815 elapsed seconds
Timing for main: time 2016-02-05_13:05:00 on domain   4:     .17173 elapsed seconds
Timing for main: time 2016-02-05_13:05:20 on domain   4:     .15862 elapsed seconds
Timing for main: time 2016-02-05_13:05:20 on domain   2:    1.33657 elapsed seconds
Timing for main: time 2016-02-05_13:05:33 on domain   3:     .14359 elapsed seconds
Timing for main: time 2016-02-05_13:05:46 on domain   3:     .12835 elapsed seconds
Timing for main: time 2016-02-05_13:06:00 on domain   3:     .12803 elapsed seconds
Timing for main: time 2016-02-05_13:05:40 on domain   4:     .16462 elapsed seconds
Timing for main: time 2016-02-05_13:06:00 on domain   4:     .16157 elapsed seconds
Timing for main: time 2016-02-05_13:06:00 on domain   2:    1.32712 elapsed seconds
Timing for main: time 2016-02-05_13:06:00 on domain   1:    4.36495 elapsed seconds
Timing for main: time 2016-02-05_13:06:13 on domain   3:     .14283 elapsed seconds
Timing for main: time 2016-02-05_13:06:26 on domain   3:     .13353 elapsed seconds
Timing for main: time 2016-02-05_13:06:40 on domain   3:     .12812 elapsed seconds
Timing for main: time 2016-02-05_13:06:20 on domain   4:     .16238 elapsed seconds
Timing for main: time 2016-02-05_13:06:40 on domain   4:     .15886 elapsed seconds
Timing for main: time 2016-02-05_13:06:40 on domain   2:    1.36042 elapsed seconds
Timing for main: time 2016-02-05_13:06:53 on domain   3:     .14308 elapsed seconds
Timing for main: time 2016-02-05_13:07:06 on domain   3:     .13012 elapsed seconds
Timing for main: time 2016-02-05_13:07:20 on domain   3:     .14351 elapsed seconds
Timing for main: time 2016-02-05_13:07:00 on domain   4:     .16857 elapsed seconds
Timing for main: time 2016-02-05_13:07:20 on domain   4:     .16497 elapsed seconds
Timing for main: time 2016-02-05_13:07:20 on domain   2:    1.35150 elapsed seconds
Timing for main: time 2016-02-05_13:07:33 on domain   3:     .14329 elapsed seconds
Timing for main: time 2016-02-05_13:07:46 on domain   3:     .13114 elapsed seconds
Timing for main: time 2016-02-05_13:08:00 on domain   3:     .12818 elapsed seconds
Timing for main: time 2016-02-05_13:07:40 on domain   4:     .16441 elapsed seconds
Timing for main: time 2016-02-05_13:08:00 on domain   4:     .15949 elapsed seconds
Timing for main: time 2016-02-05_13:08:00 on domain   2:    1.32808 elapsed seconds
Timing for main: time 2016-02-05_13:08:00 on domain   1:    4.38757 elapsed seconds
Timing for main: time 2016-02-05_13:08:13 on domain   3:     .14336 elapsed seconds
Timing for main: time 2016-02-05_13:08:26 on domain   3:     .12802 elapsed seconds
Timing for main: time 2016-02-05_13:08:40 on domain   3:     .12851 elapsed seconds
Timing for main: time 2016-02-05_13:08:20 on domain   4:     .16440 elapsed seconds
Timing for main: time 2016-02-05_13:08:40 on domain   4:     .16679 elapsed seconds
Timing for main: time 2016-02-05_13:08:40 on domain   2:    1.33996 elapsed seconds
Timing for main: time 2016-02-05_13:08:53 on domain   3:     .14327 elapsed seconds
Timing for main: time 2016-02-05_13:09:06 on domain   3:     .12780 elapsed seconds
Timing for main: time 2016-02-05_13:09:20 on domain   3:     .12905 elapsed seconds
Timing for main: time 2016-02-05_13:09:00 on domain   4:     .16415 elapsed seconds
Timing for main: time 2016-02-05_13:09:20 on domain   4:     .15858 elapsed seconds
Timing for main: time 2016-02-05_13:09:20 on domain   2:    1.35848 elapsed seconds
Timing for main: time 2016-02-05_13:09:33 on domain   3:     .15833 elapsed seconds
Timing for main: time 2016-02-05_13:09:46 on domain   3:     .12875 elapsed seconds
Timing for main: time 2016-02-05_13:10:00 on domain   3:     .12790 elapsed seconds
Timing for main: time 2016-02-05_13:09:40 on domain   4:     .16421 elapsed seconds
Timing for main: time 2016-02-05_13:10:00 on domain   4:     .16589 elapsed seconds
Timing for main: time 2016-02-05_13:10:00 on domain   2:    1.34650 elapsed seconds
Timing for main: time 2016-02-05_13:10:00 on domain   1:    4.34305 elapsed seconds
Timing for main: time 2016-02-05_13:10:13 on domain   3:     .14340 elapsed seconds
Timing for main: time 2016-02-05_13:10:26 on domain   3:     .12800 elapsed seconds
Timing for main: time 2016-02-05_13:10:40 on domain   3:     .12819 elapsed seconds
Timing for main: time 2016-02-05_13:10:20 on domain   4:     .16475 elapsed seconds
Timing for main: time 2016-02-05_13:10:40 on domain   4:     .18522 elapsed seconds
Timing for main: time 2016-02-05_13:10:40 on domain   2:    1.35947 elapsed seconds
Timing for main: time 2016-02-05_13:10:53 on domain   3:     .14332 elapsed seconds
Timing for main: time 2016-02-05_13:11:06 on domain   3:     .12874 elapsed seconds
Timing for main: time 2016-02-05_13:11:20 on domain   3:     .12824 elapsed seconds
Timing for main: time 2016-02-05_13:11:00 on domain   4:     .16249 elapsed seconds
Timing for main: time 2016-02-05_13:11:20 on domain   4:     .16435 elapsed seconds
Timing for main: time 2016-02-05_13:11:20 on domain   2:    1.37312 elapsed seconds
Timing for main: time 2016-02-05_13:11:33 on domain   3:     .14917 elapsed seconds
Timing for main: time 2016-02-05_13:11:46 on domain   3:     .12964 elapsed seconds
Timing for main: time 2016-02-05_13:12:00 on domain   3:     .13113 elapsed seconds
Timing for main: time 2016-02-05_13:11:40 on domain   4:     .16410 elapsed seconds
Timing for main: time 2016-02-05_13:12:00 on domain   4:     .15842 elapsed seconds
Timing for main: time 2016-02-05_13:12:00 on domain   2:    1.33361 elapsed seconds
Timing for main: time 2016-02-05_13:12:00 on domain   1:    4.36814 elapsed seconds
Timing for main: time 2016-02-05_13:12:13 on domain   3:     .14340 elapsed seconds
Timing for main: time 2016-02-05_13:12:26 on domain   3:     .13122 elapsed seconds
Timing for main: time 2016-02-05_13:12:40 on domain   3:     .12959 elapsed seconds
Timing for main: time 2016-02-05_13:12:20 on domain   4:     .16415 elapsed seconds
Timing for main: time 2016-02-05_13:12:40 on domain   4:     .15876 elapsed seconds
Timing for main: time 2016-02-05_13:12:40 on domain   2:    1.33728 elapsed seconds
Timing for main: time 2016-02-05_13:12:53 on domain   3:     .14323 elapsed seconds
Timing for main: time 2016-02-05_13:13:06 on domain   3:     .13111 elapsed seconds
Timing for main: time 2016-02-05_13:13:20 on domain   3:     .12660 elapsed seconds
Timing for main: time 2016-02-05_13:13:00 on domain   4:     .16405 elapsed seconds
Timing for main: time 2016-02-05_13:13:20 on domain   4:     .15896 elapsed seconds
Timing for main: time 2016-02-05_13:13:20 on domain   2:    1.32661 elapsed seconds
Timing for main: time 2016-02-05_13:13:33 on domain   3:     .14319 elapsed seconds
Timing for main: time 2016-02-05_13:13:46 on domain   3:     .12812 elapsed seconds
Timing for main: time 2016-02-05_13:14:00 on domain   3:     .13167 elapsed seconds
Timing for main: time 2016-02-05_13:13:40 on domain   4:     .16429 elapsed seconds
Timing for main: time 2016-02-05_13:14:00 on domain   4:     .15865 elapsed seconds
Timing for main: time 2016-02-05_13:14:00 on domain   2:    1.32750 elapsed seconds
Timing for main: time 2016-02-05_13:14:00 on domain   1:    4.28801 elapsed seconds
Timing for main: time 2016-02-05_13:14:13 on domain   3:     .14827 elapsed seconds
Timing for main: time 2016-02-05_13:14:26 on domain   3:     .12823 elapsed seconds
Timing for main: time 2016-02-05_13:14:40 on domain   3:     .12854 elapsed seconds
Timing for main: time 2016-02-05_13:14:20 on domain   4:     .16406 elapsed seconds
Timing for main: time 2016-02-05_13:14:40 on domain   4:     .15938 elapsed seconds
Timing for main: time 2016-02-05_13:14:40 on domain   2:    1.34445 elapsed seconds
Timing for main: time 2016-02-05_13:14:53 on domain   3:     .14320 elapsed seconds
Timing for main: time 2016-02-05_13:15:06 on domain   3:     .12831 elapsed seconds
Timing for main: time 2016-02-05_13:15:20 on domain   3:     .12803 elapsed seconds
Timing for main: time 2016-02-05_13:15:00 on domain   4:     .17128 elapsed seconds
Timing for main: time 2016-02-05_13:15:20 on domain   4:     .15866 elapsed seconds
Timing for main: time 2016-02-05_13:15:20 on domain   2:    1.33217 elapsed seconds
Timing for main: time 2016-02-05_13:15:33 on domain   3:     .14332 elapsed seconds
Timing for main: time 2016-02-05_13:15:46 on domain   3:     .12822 elapsed seconds
Timing for main: time 2016-02-05_13:16:00 on domain   3:     .12814 elapsed seconds
Timing for main: time 2016-02-05_13:15:40 on domain   4:     .16264 elapsed seconds
Timing for main: time 2016-02-05_13:16:00 on domain   4:     .15967 elapsed seconds
Timing for main: time 2016-02-05_13:16:00 on domain   2:    1.33623 elapsed seconds
Timing for main: time 2016-02-05_13:16:00 on domain   1:    4.31057 elapsed seconds
Timing for main: time 2016-02-05_13:16:13 on domain   3:     .14320 elapsed seconds
Timing for main: time 2016-02-05_13:16:26 on domain   3:     .12855 elapsed seconds
Timing for main: time 2016-02-05_13:16:40 on domain   3:     .13379 elapsed seconds
Timing for main: time 2016-02-05_13:16:20 on domain   4:     .16431 elapsed seconds
Timing for main: time 2016-02-05_13:16:40 on domain   4:     .15854 elapsed seconds
Timing for main: time 2016-02-05_13:16:40 on domain   2:    1.33791 elapsed seconds
Timing for main: time 2016-02-05_13:16:53 on domain   3:     .14333 elapsed seconds
Timing for main: time 2016-02-05_13:17:06 on domain   3:     .13016 elapsed seconds
Timing for main: time 2016-02-05_13:17:20 on domain   3:     .12819 elapsed seconds
Timing for main: time 2016-02-05_13:17:00 on domain   4:     .16412 elapsed seconds
Timing for main: time 2016-02-05_13:17:20 on domain   4:     .15861 elapsed seconds
Timing for main: time 2016-02-05_13:17:20 on domain   2:    1.33140 elapsed seconds
[...]
Timing for main: time 2016-02-05_17:36:00 on domain   2:    1.33854 elapsed seconds
Timing for main: time 2016-02-05_17:36:00 on domain   1:    4.32428 elapsed seconds
Timing for main: time 2016-02-05_17:36:13 on domain   3:     .15630 elapsed seconds
Timing for main: time 2016-02-05_17:36:26 on domain   3:     .12959 elapsed seconds
Timing for main: time 2016-02-05_17:36:40 on domain   3:     .13015 elapsed seconds
Timing for main: time 2016-02-05_17:36:20 on domain   4:     .16473 elapsed seconds
Timing for main: time 2016-02-05_17:36:40 on domain   4:     .16261 elapsed seconds
Timing for main: time 2016-02-05_17:36:40 on domain   2:    1.35293 elapsed seconds
Timing for main: time 2016-02-05_17:36:53 on domain   3:     .14605 elapsed seconds
Timing for main: time 2016-02-05_17:37:06 on domain   3:     .12930 elapsed seconds
Timing for main: time 2016-02-05_17:37:20 on domain   3:     .13554 elapsed seconds
Timing for main: time 2016-02-05_17:37:00 on domain   4:     .16438 elapsed seconds
Timing for main: time 2016-02-05_17:37:20 on domain   4:     .16157 elapsed seconds
Timing for main: time 2016-02-05_17:37:20 on domain   2:    1.33993 elapsed seconds
Timing for main: time 2016-02-05_17:37:33 on domain   3:     .14614 elapsed seconds
Timing for main: time 2016-02-05_17:37:46 on domain   3:     .12980 elapsed seconds
Timing for main: time 2016-02-05_17:38:00 on domain   3:     .12997 elapsed seconds
Timing for main: time 2016-02-05_17:37:40 on domain   4:     .16412 elapsed seconds
Timing for main: time 2016-02-05_17:38:00 on domain   4:     .15960 elapsed seconds
Timing for main: time 2016-02-05_17:38:00 on domain   2:    1.33453 elapsed seconds
Timing for main: time 2016-02-05_17:38:00 on domain   1:    4.32472 elapsed seconds
Timing for main: time 2016-02-05_17:38:13 on domain   3:     .14583 elapsed seconds
Timing for main: time 2016-02-05_17:38:26 on domain   3:     .12972 elapsed seconds
Timing for main: time 2016-02-05_17:38:40 on domain   3:     .12985 elapsed seconds
Timing for main: time 2016-02-05_17:38:20 on domain   4:     .16454 elapsed seconds
Timing for main: time 2016-02-05_17:38:40 on domain   4:     .15960 elapsed seconds
Timing for main: time 2016-02-05_17:38:40 on domain   2:    1.33784 elapsed seconds
Timing for main: time 2016-02-05_17:38:53 on domain   3:     .14848 elapsed seconds
Timing for main: time 2016-02-05_17:39:06 on domain   3:     .13047 elapsed seconds
Timing for main: time 2016-02-05_17:39:20 on domain   3:     .12995 elapsed seconds
Timing for main: time 2016-02-05_17:39:00 on domain   4:     .16476 elapsed seconds
Timing for main: time 2016-02-05_17:39:20 on domain   4:     .15939 elapsed seconds
Timing for main: time 2016-02-05_17:39:20 on domain   2:    1.33482 elapsed seconds
Timing for main: time 2016-02-05_17:39:33 on domain   3:     .14909 elapsed seconds
Timing for main: time 2016-02-05_17:39:46 on domain   3:     .12856 elapsed seconds
Timing for main: time 2016-02-05_17:40:00 on domain   3:     .13024 elapsed seconds
Timing for main: time 2016-02-05_17:39:40 on domain   4:     .16515 elapsed seconds
Timing for main: time 2016-02-05_17:40:00 on domain   4:     .16777 elapsed seconds
Timing for main: time 2016-02-05_17:40:00 on domain   2:    1.34246 elapsed seconds
Timing for main: time 2016-02-05_17:40:00 on domain   1:    4.31319 elapsed seconds
Timing for main: time 2016-02-05_17:40:13 on domain   3:     .14589 elapsed seconds
Timing for main: time 2016-02-05_17:40:26 on domain   3:     .12982 elapsed seconds
Timing for main: time 2016-02-05_17:40:40 on domain   3:     .13078 elapsed seconds
Timing for main: time 2016-02-05_17:40:20 on domain   4:     .16511 elapsed seconds
Timing for main: time 2016-02-05_17:40:40 on domain   4:     .19986 elapsed seconds
Timing for main: time 2016-02-05_17:40:40 on domain   2:    1.38003 elapsed seconds
Timing for main: time 2016-02-05_17:40:53 on domain   3:     .14524 elapsed seconds
Timing for main: time 2016-02-05_17:41:06 on domain   3:     .13181 elapsed seconds
Timing for main: time 2016-02-05_17:41:20 on domain   3:     .12934 elapsed seconds
Timing for main: time 2016-02-05_17:41:00 on domain   4:     .19505 elapsed seconds
Timing for main: time 2016-02-05_17:41:20 on domain   4:     .16227 elapsed seconds
Timing for main: time 2016-02-05_17:41:20 on domain   2:    1.42780 elapsed seconds
Timing for main: time 2016-02-05_17:41:33 on domain   3:     .14585 elapsed seconds
Timing for main: time 2016-02-05_17:41:46 on domain   3:     .12986 elapsed seconds
Timing for main: time 2016-02-05_17:42:00 on domain   3:     .13002 elapsed seconds
Timing for main: time 2016-02-05_17:41:40 on domain   4:     .16445 elapsed seconds
Timing for main: time 2016-02-05_17:42:00 on domain   4:     .16928 elapsed seconds
Timing for main: time 2016-02-05_17:42:00 on domain   2:    1.34231 elapsed seconds
Timing for main: time 2016-02-05_17:42:00 on domain   1:    4.45180 elapsed seconds
Timing for main: time 2016-02-05_17:42:13 on domain   3:     .14574 elapsed seconds
Timing for main: time 2016-02-05_17:42:26 on domain   3:     .13662 elapsed seconds
Timing for main: time 2016-02-05_17:42:40 on domain   3:     .12968 elapsed seconds
Timing for main: time 2016-02-05_17:42:20 on domain   4:     .16446 elapsed seconds
Timing for main: time 2016-02-05_17:42:40 on domain   4:     .15984 elapsed seconds
Timing for main: time 2016-02-05_17:42:40 on domain   2:    1.34473 elapsed seconds
Timing for main: time 2016-02-05_17:42:53 on domain   3:     .14592 elapsed seconds
Timing for main: time 2016-02-05_17:43:06 on domain   3:     .12972 elapsed seconds
Timing for main: time 2016-02-05_17:43:20 on domain   3:     .13080 elapsed seconds
Timing for main: time 2016-02-05_17:43:00 on domain   4:     .16563 elapsed seconds
Timing for main: time 2016-02-05_17:43:20 on domain   4:     .16935 elapsed seconds
Timing for main: time 2016-02-05_17:43:20 on domain   2:    1.34194 elapsed seconds
Timing for main: time 2016-02-05_17:43:33 on domain   3:     .14603 elapsed seconds
Timing for main: time 2016-02-05_17:43:46 on domain   3:     .12981 elapsed seconds
Timing for main: time 2016-02-05_17:44:00 on domain   3:     .12993 elapsed seconds
Timing for main: time 2016-02-05_17:43:40 on domain   4:     .16477 elapsed seconds
Timing for main: time 2016-02-05_17:44:00 on domain   4:     .17088 elapsed seconds
Timing for main: time 2016-02-05_17:44:00 on domain   2:    1.34402 elapsed seconds
Timing for main: time 2016-02-05_17:44:00 on domain   1:    4.32798 elapsed seconds
Timing for main: time 2016-02-05_17:44:13 on domain   3:     .14572 elapsed seconds
Timing for main: time 2016-02-05_17:44:26 on domain   3:     .13204 elapsed seconds
Timing for main: time 2016-02-05_17:44:40 on domain   3:     .13006 elapsed seconds
Timing for main: time 2016-02-05_17:44:20 on domain   4:     .16467 elapsed seconds
Timing for main: time 2016-02-05_17:44:40 on domain   4:     .16507 elapsed seconds
Timing for main: time 2016-02-05_17:44:40 on domain   2:    1.34534 elapsed seconds
Timing for main: time 2016-02-05_17:44:53 on domain   3:     .14591 elapsed seconds
Timing for main: time 2016-02-05_17:45:06 on domain   3:     .12997 elapsed seconds
Timing for main: time 2016-02-05_17:45:20 on domain   3:     .12942 elapsed seconds
Timing for main: time 2016-02-05_17:45:00 on domain   4:     .17146 elapsed seconds
Timing for main: time 2016-02-05_17:45:20 on domain   4:     .15944 elapsed seconds
Timing for main: time 2016-02-05_17:45:20 on domain   2:    1.34366 elapsed seconds
Timing for main: time 2016-02-05_17:45:33 on domain   3:     .14562 elapsed seconds
Timing for main: time 2016-02-05_17:45:46 on domain   3:     .12970 elapsed seconds
Timing for main: time 2016-02-05_17:46:00 on domain   3:     .13184 elapsed seconds
Timing for main: time 2016-02-05_17:45:40 on domain   4:     .16463 elapsed seconds
Timing for main: time 2016-02-05_17:46:00 on domain   4:     .16181 elapsed seconds
Timing for main: time 2016-02-05_17:46:00 on domain   2:    1.33528 elapsed seconds
Timing for main: time 2016-02-05_17:46:00 on domain   1:    4.32183 elapsed seconds
Timing for main: time 2016-02-05_17:46:13 on domain   3:     .14854 elapsed seconds
Timing for main: time 2016-02-05_17:46:26 on domain   3:     .12979 elapsed seconds
Timing for main: time 2016-02-05_17:46:40 on domain   3:     .13135 elapsed seconds
Timing for main: time 2016-02-05_17:46:20 on domain   4:     .16526 elapsed seconds
Timing for main: time 2016-02-05_17:46:40 on domain   4:     .16398 elapsed seconds
Timing for main: time 2016-02-05_17:46:40 on domain   2:    1.35427 elapsed seconds
Timing for main: time 2016-02-05_17:46:53 on domain   3:     .14398 elapsed seconds
Timing for main: time 2016-02-05_17:47:06 on domain   3:     .13088 elapsed seconds
Timing for main: time 2016-02-05_17:47:20 on domain   3:     .13046 elapsed seconds
Timing for main: time 2016-02-05_17:47:00 on domain   4:     .16525 elapsed seconds
Timing for main: time 2016-02-05_17:47:20 on domain   4:     .16109 elapsed seconds
Timing for main: time 2016-02-05_17:47:20 on domain   2:    1.34197 elapsed seconds
Timing for main: time 2016-02-05_17:47:33 on domain   3:     .15152 elapsed seconds
Timing for main: time 2016-02-05_17:47:46 on domain   3:     .12991 elapsed seconds
Timing for main: time 2016-02-05_17:48:00 on domain   3:     .12996 elapsed seconds
Timing for main: time 2016-02-05_17:47:40 on domain   4:     .16440 elapsed seconds
Timing for main: time 2016-02-05_17:48:00 on domain   4:     .15958 elapsed seconds
Timing for main: time 2016-02-05_17:48:00 on domain   2:    1.33666 elapsed seconds
Timing for main: time 2016-02-05_17:48:00 on domain   1:    4.38177 elapsed seconds
Timing for main: time 2016-02-05_17:48:13 on domain   3:     .14601 elapsed seconds
Timing for main: time 2016-02-05_17:48:26 on domain   3:     .13134 elapsed seconds
Timing for main: time 2016-02-05_17:48:40 on domain   3:     .13261 elapsed seconds
Timing for main: time 2016-02-05_17:48:20 on domain   4:     .16445 elapsed seconds
Timing for main: time 2016-02-05_17:48:40 on domain   4:     .16090 elapsed seconds
Timing for main: time 2016-02-05_17:48:40 on domain   2:    1.34674 elapsed seconds
Timing for main: time 2016-02-05_17:48:53 on domain   3:     .14590 elapsed seconds
Timing for main: time 2016-02-05_17:49:06 on domain   3:     .13192 elapsed seconds
Timing for main: time 2016-02-05_17:49:20 on domain   3:     .13008 elapsed seconds
Timing for main: time 2016-02-05_17:49:00 on domain   4:     .16405 elapsed seconds
Timing for main: time 2016-02-05_17:49:20 on domain   4:     .15965 elapsed seconds
Timing for main: time 2016-02-05_17:49:20 on domain   2:    1.33204 elapsed seconds
Timing for main: time 2016-02-05_17:49:33 on domain   3:     .14608 elapsed seconds
Timing for main: time 2016-02-05_17:49:46 on domain   3:     .12972 elapsed seconds
Timing for main: time 2016-02-05_17:50:00 on domain   3:     .13011 elapsed seconds
Timing for main: time 2016-02-05_17:49:40 on domain   4:     .16468 elapsed seconds
Timing for main: time 2016-02-05_17:50:00 on domain   4:     .16697 elapsed seconds
Timing for main: time 2016-02-05_17:50:00 on domain   2:    1.34020 elapsed seconds
Timing for main: time 2016-02-05_17:50:00 on domain   1:    4.31618 elapsed seconds
Timing for main: time 2016-02-05_17:50:13 on domain   3:     .15613 elapsed seconds
Timing for main: time 2016-02-05_17:50:26 on domain   3:     .12971 elapsed seconds
Timing for main: time 2016-02-05_17:50:40 on domain   3:     .13027 elapsed seconds
Timing for main: time 2016-02-05_17:50:20 on domain   4:     .16671 elapsed seconds
Timing for main: time 2016-02-05_17:50:40 on domain   4:     .15905 elapsed seconds
Timing for main: time 2016-02-05_17:50:40 on domain   2:    1.34974 elapsed seconds
Timing for main: time 2016-02-05_17:50:53 on domain   3:     .14614 elapsed seconds
Timing for main: time 2016-02-05_17:51:06 on domain   3:     .13009 elapsed seconds
Timing for main: time 2016-02-05_17:51:20 on domain   3:     .13122 elapsed seconds
Timing for main: time 2016-02-05_17:51:00 on domain   4:     .16438 elapsed seconds
Timing for main: time 2016-02-05_17:51:20 on domain   4:     .15992 elapsed seconds
Timing for main: time 2016-02-05_17:51:20 on domain   2:    1.33329 elapsed seconds
Timing for main: time 2016-02-05_17:51:33 on domain   3:     .14345 elapsed seconds
Timing for main: time 2016-02-05_17:51:46 on domain   3:     .13200 elapsed seconds
Timing for main: time 2016-02-05_17:52:00 on domain   3:     .13002 elapsed seconds
Timing for main: time 2016-02-05_17:51:40 on domain   4:     .16449 elapsed seconds
Timing for main: time 2016-02-05_17:52:00 on domain   4:     .15944 elapsed seconds
Timing for main: time 2016-02-05_17:52:00 on domain   2:    1.34817 elapsed seconds
Timing for main: time 2016-02-05_17:52:00 on domain   1:    4.32910 elapsed seconds
Timing for main: time 2016-02-05_17:52:13 on domain   3:     .14603 elapsed seconds
Timing for main: time 2016-02-05_17:52:26 on domain   3:     .13011 elapsed seconds
Timing for main: time 2016-02-05_17:52:40 on domain   3:     .13700 elapsed seconds
Timing for main: time 2016-02-05_17:52:20 on domain   4:     .16492 elapsed seconds
Timing for main: time 2016-02-05_17:52:40 on domain   4:     .16165 elapsed seconds
Timing for main: time 2016-02-05_17:52:40 on domain   2:    1.34781 elapsed seconds
Timing for main: time 2016-02-05_17:52:53 on domain   3:     .14605 elapsed seconds
Timing for main: time 2016-02-05_17:53:06 on domain   3:     .12994 elapsed seconds
Timing for main: time 2016-02-05_17:53:20 on domain   3:     .13011 elapsed seconds
Timing for main: time 2016-02-05_17:53:00 on domain   4:     .16477 elapsed seconds
Timing for main: time 2016-02-05_17:53:20 on domain   4:     .15944 elapsed seconds
Timing for main: time 2016-02-05_17:53:20 on domain   2:    1.33309 elapsed seconds
Timing for main: time 2016-02-05_17:53:33 on domain   3:     .14965 elapsed seconds
Timing for main: time 2016-02-05_17:53:46 on domain   3:     .13224 elapsed seconds
Timing for main: time 2016-02-05_17:54:00 on domain   3:     .13034 elapsed seconds
Timing for main: time 2016-02-05_17:53:40 on domain   4:     .16432 elapsed seconds
Timing for main: time 2016-02-05_17:54:00 on domain   4:     .15932 elapsed seconds
Timing for main: time 2016-02-05_17:54:00 on domain   2:    1.33598 elapsed seconds
Timing for main: time 2016-02-05_17:54:00 on domain   1:    4.31766 elapsed seconds
Timing for main: time 2016-02-05_17:54:13 on domain   3:     .14601 elapsed seconds
Timing for main: time 2016-02-05_17:54:26 on domain   3:     .12980 elapsed seconds
Timing for main: time 2016-02-05_17:54:40 on domain   3:     .13021 elapsed seconds
Timing for main: time 2016-02-05_17:54:20 on domain   4:     .16446 elapsed seconds
Timing for main: time 2016-02-05_17:54:40 on domain   4:     .15956 elapsed seconds
Timing for main: time 2016-02-05_17:54:40 on domain   2:    1.33726 elapsed seconds
Timing for main: time 2016-02-05_17:54:53 on domain   3:     .14373 elapsed seconds
Timing for main: time 2016-02-05_17:55:06 on domain   3:     .12966 elapsed seconds
Timing for main: time 2016-02-05_17:55:20 on domain   3:     .13003 elapsed seconds
Timing for main: time 2016-02-05_17:55:00 on domain   4:     .19836 elapsed seconds
Timing for main: time 2016-02-05_17:55:20 on domain   4:     .16022 elapsed seconds
Timing for main: time 2016-02-05_17:55:20 on domain   2:    1.36717 elapsed seconds
Timing for main: time 2016-02-05_17:55:33 on domain   3:     .14620 elapsed seconds
Timing for main: time 2016-02-05_17:55:46 on domain   3:     .12955 elapsed seconds
Timing for main: time 2016-02-05_17:56:00 on domain   3:     .13057 elapsed seconds
Timing for main: time 2016-02-05_17:55:40 on domain   4:     .16518 elapsed seconds
Timing for main: time 2016-02-05_17:56:00 on domain   4:     .16442 elapsed seconds
Timing for main: time 2016-02-05_17:56:00 on domain   2:    1.33695 elapsed seconds
Timing for main: time 2016-02-05_17:56:00 on domain   1:    4.33853 elapsed seconds
Timing for main: time 2016-02-05_17:56:13 on domain   3:     .14599 elapsed seconds
Timing for main: time 2016-02-05_17:56:26 on domain   3:     .12973 elapsed seconds
Timing for main: time 2016-02-05_17:56:40 on domain   3:     .12994 elapsed seconds
Timing for main: time 2016-02-05_17:56:20 on domain   4:     .16632 elapsed seconds
Timing for main: time 2016-02-05_17:56:40 on domain   4:     .16014 elapsed seconds
Timing for main: time 2016-02-05_17:56:40 on domain   2:    1.33967 elapsed seconds
Timing for main: time 2016-02-05_17:56:53 on domain   3:     .14599 elapsed seconds
Timing for main: time 2016-02-05_17:57:06 on domain   3:     .12983 elapsed seconds
Timing for main: time 2016-02-05_17:57:20 on domain   3:     .13352 elapsed seconds
Timing for main: time 2016-02-05_17:57:00 on domain   4:     .16522 elapsed seconds
Timing for main: time 2016-02-05_17:57:20 on domain   4:     .15916 elapsed seconds
Timing for main: time 2016-02-05_17:57:20 on domain   2:    1.34162 elapsed seconds
Timing for main: time 2016-02-05_17:57:33 on domain   3:     .14609 elapsed seconds
Timing for main: time 2016-02-05_17:57:46 on domain   3:     .13522 elapsed seconds
Timing for main: time 2016-02-05_17:58:00 on domain   3:     .12983 elapsed seconds
Timing for main: time 2016-02-05_17:57:40 on domain   4:     .16447 elapsed seconds
Timing for main: time 2016-02-05_17:58:00 on domain   4:     .15948 elapsed seconds
Timing for main: time 2016-02-05_17:58:00 on domain   2:    1.34052 elapsed seconds
Timing for main: time 2016-02-05_17:58:00 on domain   1:    4.31962 elapsed seconds
  photolysis_driver: called for domain  1
Timing for main: time 2016-02-05_17:58:13 on domain   3:     .14617 elapsed seconds
Timing for main: time 2016-02-05_17:58:26 on domain   3:     .12961 elapsed seconds
Timing for main: time 2016-02-05_17:58:40 on domain   3:     .12989 elapsed seconds
Timing for main: time 2016-02-05_17:58:20 on domain   4:     .16460 elapsed seconds
Timing for main: time 2016-02-05_17:58:40 on domain   4:     .16136 elapsed seconds
Timing for main: time 2016-02-05_17:58:40 on domain   2:    1.34004 elapsed seconds
Timing for main: time 2016-02-05_17:58:53 on domain   3:     .14797 elapsed seconds
Timing for main: time 2016-02-05_17:59:06 on domain   3:     .13068 elapsed seconds
Timing for main: time 2016-02-05_17:59:20 on domain   3:     .12982 elapsed seconds
Timing for main: time 2016-02-05_17:59:00 on domain   4:     .16350 elapsed seconds
Timing for main: time 2016-02-05_17:59:20 on domain   4:     .15907 elapsed seconds
Timing for main: time 2016-02-05_17:59:20 on domain   2:    1.39101 elapsed seconds
  photolysis_driver: called for domain  2
Timing for main: time 2016-02-05_17:59:33 on domain   3:     .14626 elapsed seconds
Timing for main: time 2016-02-05_17:59:46 on domain   3:     .13124 elapsed seconds
  photolysis_driver: called for domain  3
Timing for main: time 2016-02-05_18:00:00 on domain   3:     .73470 elapsed seconds
Timing for Writing wrfout_d03_2016-02-05_18:00:00 for domain        3:    1.92841 elapsed seconds
Timing for main: time 2016-02-05_17:59:40 on domain   4:     .18396 elapsed seconds
  photolysis_driver: called for domain  4
Timing for main: time 2016-02-05_18:00:00 on domain   4:     .87833 elapsed seconds
Timing for Writing wrfout_d04_2016-02-05_18:00:00 for domain        4:    2.12443 elapsed seconds
Timing for main: time 2016-02-05_18:00:00 on domain   2:    7.45478 elapsed seconds
Timing for Writing wrfout_d02_2016-02-05_18:00:00 for domain        2:    2.88398 elapsed seconds
Timing for main: time 2016-02-05_18:00:00 on domain   1:   14.61331 elapsed seconds
Timing for Writing wrfout_d01_2016-02-05_18:00:00 for domain        1:    1.64848 elapsed seconds
 d01 2016-02-05_18:00:00 wrf: SUCCESS COMPLETE WRF
