taskid: 0 hostname: p10a51.pbm.ihost.com
  Ntasks in X  10 , ntasks in Y  14
 Setting blank km_opt entries to domain #1 values.
  --> The km_opt entry in the namelist.input is now max_domains.
 Setting blank diff_opt entries to domain #1 values.
  --> The diff_opt entry in the namelist.input is now max_domains.
 --- WARNING: traj_opt is zero, but num_traj is not zero; setting num_traj to zero.
 --- NOTE: hypsometric_opt is 2, setting adjust_heights = F
 --- NOTE: sst_update is 0, setting io_form_auxinput4 = 0 and auxinput4_interval = 0 for all domains
 --- NOTE: sst_update is 0, setting io_form_auxinput4 = 0 and auxinput4_interval = 0 for all domains
 --- NOTE: sst_update is 0, setting io_form_auxinput4 = 0 and auxinput4_interval = 0 for all domains
 --- NOTE: sst_update is 0, setting io_form_auxinput4 = 0 and auxinput4_interval = 0 for all domains
 --- NOTE: grid_fdda is 0 for domain      1, setting gfdda interval and ending time to 0 for that domain.
 --- NOTE: both grid_sfdda and pxlsm_soil_nudge are 0 for domain      1, setting sgfdda interval and ending time to 0 for that domain.
 --- NOTE: obs_nudge_opt is 0 for domain      1, setting obs nudging interval and ending time to 0 for that domain.
 --- NOTE: grid_fdda is 0 for domain      2, setting gfdda interval and ending time to 0 for that domain.
 --- NOTE: both grid_sfdda and pxlsm_soil_nudge are 0 for domain      2, setting sgfdda interval and ending time to 0 for that domain.
 --- NOTE: obs_nudge_opt is 0 for domain      2, setting obs nudging interval and ending time to 0 for that domain.
 --- NOTE: grid_fdda is 0 for domain      3, setting gfdda interval and ending time to 0 for that domain.
 --- NOTE: both grid_sfdda and pxlsm_soil_nudge are 0 for domain      3, setting sgfdda interval and ending time to 0 for that domain.
 --- NOTE: obs_nudge_opt is 0 for domain      3, setting obs nudging interval and ending time to 0 for that domain.
 --- NOTE: grid_fdda is 0 for domain      4, setting gfdda interval and ending time to 0 for that domain.
 --- NOTE: both grid_sfdda and pxlsm_soil_nudge are 0 for domain      4, setting sgfdda interval and ending time to 0 for that domain.
 --- NOTE: obs_nudge_opt is 0 for domain      4, setting obs nudging interval and ending time to 0 for that domain.
 bl_pbl_physics /= 4, implies mfshconv must be 0, resetting
 --- NOTE: num_soil_layers has been set to      4
 WRF V3.6 MODEL
  *************************************
  Parent domain
  ids,ide,jds,jde  1 271 1 181
  ims,ime,jms,jme  -4 34 -4 20
  ips,ipe,jps,jpe  1 27 1 13
  *************************************
 DYNAMICS OPTION: Eulerian Mass Coordinate
    alloc_space_field: domain  1 ,  98992808  bytes allocated
   med_initialdata_input: calling input_input
Timing for processing wrfinput file (stream 0) for domain        1:    3.97727 elapsed seconds
 INPUT LandUse = "USGS"
  LANDUSE TYPE = "USGS" FOUND 33  CATEGORIES 2  SEASONS WATER CATEGORY =  16  SNOW CATEGORY =  24
 INITIALIZE THREE Noah LSM RELATED TABLES
  LANDUSE TYPE = USGS FOUND 27  CATEGORIES
  INPUT SOIL TEXTURE CLASSIFICATION = STAS
  SOIL TEXTURE CLASSIFICATION = STAS FOUND 19  CATEGORIES
 *********************************************************************
 *             PROGRAM:WRF/CHEM V3.6 MODEL
 *                                                                   *
 *    PLEASE REPORT ANY BUGS TO WRF/CHEM HELP at                     *
 *                                                                   *
 *              wrfchemhelp.gsd@noaa.gov                             *
 *                                                                   *
 *********************************************************************
 WARNING: dust option 1 currently works only with the GOCART aerosol option.
 WARNING: sea salt option 1 currently works only with the GOCART aerosol option.
  *************************************
  Nesting domain
  ids,ide,jds,jde  1 361 1 253
  ims,ime,jms,jme  -4 48 -4 30
  ips,ipe,jps,jpe  1 36 1 18
  INTERMEDIATE domain
  ids,ide,jds,jde  74 199 47 136
  ims,ime,jms,jme  69 97 42 64
  ips,ipe,jps,jpe  72 87 45 54
  *************************************
 d01 2016-02-05_12:00:00  alloc_space_field: domain  2 ,  183267860  bytes allocated
 d01 2016-02-05_12:00:00  alloc_space_field: domain  2 ,  8401532  bytes allocated
 d01 2016-02-05_12:00:00 *** Initializing nest domain # 2 from an input file. ***
 d01 2016-02-05_12:00:00 med_initialdata_input: calling input_input
Timing for processing wrfinput file (stream 0) for domain        2:    6.89788 elapsed seconds
 INPUT LandUse = "USGS"
  LANDUSE TYPE = "USGS" FOUND 33  CATEGORIES 2  SEASONS WATER CATEGORY =  16  SNOW CATEGORY =  24
 INITIALIZE THREE Noah LSM RELATED TABLES
  LANDUSE TYPE = USGS FOUND 27  CATEGORIES
  INPUT SOIL TEXTURE CLASSIFICATION = STAS
  SOIL TEXTURE CLASSIFICATION = STAS FOUND 19  CATEGORIES
 *********************************************************************
 *             PROGRAM:WRF/CHEM V3.6 MODEL
 *                                                                   *
 *    PLEASE REPORT ANY BUGS TO WRF/CHEM HELP at                     *
 *                                                                   *
 *              wrfchemhelp.gsd@noaa.gov                             *
 *                                                                   *
 *********************************************************************
 WARNING: dust option 1 currently works only with the GOCART aerosol option.
 WARNING: sea salt option 1 currently works only with the GOCART aerosol option.
 INPUT LandUse = "USGS"
  LANDUSE TYPE = "USGS" FOUND 33  CATEGORIES 2  SEASONS WATER CATEGORY =  16  SNOW CATEGORY =  24
 INITIALIZE THREE Noah LSM RELATED TABLES
  LANDUSE TYPE = USGS FOUND 27  CATEGORIES
  INPUT SOIL TEXTURE CLASSIFICATION = STAS
  SOIL TEXTURE CLASSIFICATION = STAS FOUND 19  CATEGORIES
 *********************************************************************
 *             PROGRAM:WRF/CHEM V3.6 MODEL
 *                                                                   *
 *    PLEASE REPORT ANY BUGS TO WRF/CHEM HELP at                     *
 *                                                                   *
 *              wrfchemhelp.gsd@noaa.gov                             *
 *                                                                   *
 *********************************************************************
 WARNING: dust option 1 currently works only with the GOCART aerosol option.
 WARNING: sea salt option 1 currently works only with the GOCART aerosol option.
 INPUT LandUse = "USGS"
  LANDUSE TYPE = "USGS" FOUND 33  CATEGORIES 2  SEASONS WATER CATEGORY =  16  SNOW CATEGORY =  24
 INITIALIZE THREE Noah LSM RELATED TABLES
  LANDUSE TYPE = USGS FOUND 27  CATEGORIES
  INPUT SOIL TEXTURE CLASSIFICATION = STAS
  SOIL TEXTURE CLASSIFICATION = STAS FOUND 19  CATEGORIES
 *********************************************************************
 *             PROGRAM:WRF/CHEM V3.6 MODEL
 *                                                                   *
 *    PLEASE REPORT ANY BUGS TO WRF/CHEM HELP at                     *
 *                                                                   *
 *              wrfchemhelp.gsd@noaa.gov                             *
 *                                                                   *
 *********************************************************************
 WARNING: dust option 1 currently works only with the GOCART aerosol option.
 WARNING: sea salt option 1 currently works only with the GOCART aerosol option.
Timing for Writing wrfout_d01_2016-02-05_12:00:00 for domain        1:    1.43796 elapsed seconds
  mediation_integrate: med_read_wrf_chem_emissions: Open file wrfchemi_12z_d01
  HOURLY EMISSIONS UPDATE TIME         .0        .0
 mediation_integrate: med_read_wrf_chem_emissions: Read emissions for time 2016-02-05_12:00:00
 **WARNING** Time in input file not being checked **WARNING**
Timing for processing lateral boundary for domain        1:    3.33747 elapsed seconds
  Tile Strategy is not specified. Assuming 1D-Y
 WRF TILE   1 IS      1 IE     27 JS      1 JE     13
 WRF NUMBER OF TILES =   1
  photolysis_driver: called for domain  1
  *************************************
  Nesting domain
  ids,ide,jds,jde  1 307 1 241
  ims,ime,jms,jme  -4 42 -4 30
  ips,ipe,jps,jpe  1 31 1 18
  INTERMEDIATE domain
  ids,ide,jds,jde  124 231 35 120
  ims,ime,jms,jme  119 145 30 52
  ips,ipe,jps,jpe  122 135 33 42
  *************************************
 d02 2016-02-05_12:00:00  alloc_space_field: domain  3 ,  163105532  bytes allocated
 d02 2016-02-05_12:00:00  alloc_space_field: domain  3 ,  7822116  bytes allocated
 d02 2016-02-05_12:00:00 *** Initializing nest domain # 3 from an input file. ***
 d02 2016-02-05_12:00:00 med_initialdata_input: calling input_input
Timing for processing wrfinput file (stream 0) for domain        3:    5.63703 elapsed seconds
 INPUT LandUse = "USGS"
  LANDUSE TYPE = "USGS" FOUND 33  CATEGORIES 2  SEASONS WATER CATEGORY =  16  SNOW CATEGORY =  24
 INITIALIZE THREE Noah LSM RELATED TABLES
  LANDUSE TYPE = USGS FOUND 27  CATEGORIES
  INPUT SOIL TEXTURE CLASSIFICATION = STAS
  SOIL TEXTURE CLASSIFICATION = STAS FOUND 19  CATEGORIES
 *********************************************************************
 *             PROGRAM:WRF/CHEM V3.6 MODEL
 *                                                                   *
 *    PLEASE REPORT ANY BUGS TO WRF/CHEM HELP at                     *
 *                                                                   *
 *              wrfchemhelp.gsd@noaa.gov                             *
 *                                                                   *
 *********************************************************************
 WARNING: dust option 1 currently works only with the GOCART aerosol option.
 WARNING: sea salt option 1 currently works only with the GOCART aerosol option.
 INPUT LandUse = "USGS"
  LANDUSE TYPE = "USGS" FOUND 33  CATEGORIES 2  SEASONS WATER CATEGORY =  16  SNOW CATEGORY =  24
 INITIALIZE THREE Noah LSM RELATED TABLES
  LANDUSE TYPE = USGS FOUND 27  CATEGORIES
  INPUT SOIL TEXTURE CLASSIFICATION = STAS
  SOIL TEXTURE CLASSIFICATION = STAS FOUND 19  CATEGORIES
 *********************************************************************
 *             PROGRAM:WRF/CHEM V3.6 MODEL
 *                                                                   *
 *    PLEASE REPORT ANY BUGS TO WRF/CHEM HELP at                     *
 *                                                                   *
 *              wrfchemhelp.gsd@noaa.gov                             *
 *                                                                   *
 *********************************************************************
 WARNING: dust option 1 currently works only with the GOCART aerosol option.
 WARNING: sea salt option 1 currently works only with the GOCART aerosol option.
 INPUT LandUse = "USGS"
  LANDUSE TYPE = "USGS" FOUND 33  CATEGORIES 2  SEASONS WATER CATEGORY =  16  SNOW CATEGORY =  24
 INITIALIZE THREE Noah LSM RELATED TABLES
  LANDUSE TYPE = USGS FOUND 27  CATEGORIES
  INPUT SOIL TEXTURE CLASSIFICATION = STAS
  SOIL TEXTURE CLASSIFICATION = STAS FOUND 19  CATEGORIES
 *********************************************************************
 *             PROGRAM:WRF/CHEM V3.6 MODEL
 *                                                                   *
 *    PLEASE REPORT ANY BUGS TO WRF/CHEM HELP at                     *
 *                                                                   *
 *              wrfchemhelp.gsd@noaa.gov                             *
 *                                                                   *
 *********************************************************************
 WARNING: dust option 1 currently works only with the GOCART aerosol option.
 WARNING: sea salt option 1 currently works only with the GOCART aerosol option.
  *************************************
  Nesting domain
  ids,ide,jds,jde  1 217 1 388
  ims,ime,jms,jme  -4 33 -4 39
  ips,ipe,jps,jpe  1 22 1 28
  INTERMEDIATE domain
  ids,ide,jds,jde  225 302 83 217
  ims,ime,jms,jme  220 243 78 103
  ips,ipe,jps,jpe  223 233 81 93
  *************************************
 d02 2016-02-05_12:00:00  alloc_space_field: domain  4 ,  165658064  bytes allocated
 d02 2016-02-05_12:00:00  alloc_space_field: domain  4 ,  7859904  bytes allocated
 d02 2016-02-05_12:00:00 *** Initializing nest domain # 4 from an input file. ***
 d02 2016-02-05_12:00:00 med_initialdata_input: calling input_input
Timing for processing wrfinput file (stream 0) for domain        4:    7.72561 elapsed seconds
 INPUT LandUse = "USGS"
  LANDUSE TYPE = "USGS" FOUND 33  CATEGORIES 2  SEASONS WATER CATEGORY =  16  SNOW CATEGORY =  24
 INITIALIZE THREE Noah LSM RELATED TABLES
  LANDUSE TYPE = USGS FOUND 27  CATEGORIES
  INPUT SOIL TEXTURE CLASSIFICATION = STAS
  SOIL TEXTURE CLASSIFICATION = STAS FOUND 19  CATEGORIES
 *********************************************************************
 *             PROGRAM:WRF/CHEM V3.6 MODEL
 *                                                                   *
 *    PLEASE REPORT ANY BUGS TO WRF/CHEM HELP at                     *
 *                                                                   *
 *              wrfchemhelp.gsd@noaa.gov                             *
 *                                                                   *
 *********************************************************************
 WARNING: dust option 1 currently works only with the GOCART aerosol option.
 WARNING: sea salt option 1 currently works only with the GOCART aerosol option.
 INPUT LandUse = "USGS"
  LANDUSE TYPE = "USGS" FOUND 33  CATEGORIES 2  SEASONS WATER CATEGORY =  16  SNOW CATEGORY =  24
 INITIALIZE THREE Noah LSM RELATED TABLES
  LANDUSE TYPE = USGS FOUND 27  CATEGORIES
  INPUT SOIL TEXTURE CLASSIFICATION = STAS
  SOIL TEXTURE CLASSIFICATION = STAS FOUND 19  CATEGORIES
 *********************************************************************
 *             PROGRAM:WRF/CHEM V3.6 MODEL
 *                                                                   *
 *    PLEASE REPORT ANY BUGS TO WRF/CHEM HELP at                     *
 *                                                                   *
 *              wrfchemhelp.gsd@noaa.gov                             *
 *                                                                   *
 *********************************************************************
 WARNING: dust option 1 currently works only with the GOCART aerosol option.
 WARNING: sea salt option 1 currently works only with the GOCART aerosol option.
 INPUT LandUse = "USGS"
  LANDUSE TYPE = "USGS" FOUND 33  CATEGORIES 2  SEASONS WATER CATEGORY =  16  SNOW CATEGORY =  24
 INITIALIZE THREE Noah LSM RELATED TABLES
  LANDUSE TYPE = USGS FOUND 27  CATEGORIES
  INPUT SOIL TEXTURE CLASSIFICATION = STAS
  SOIL TEXTURE CLASSIFICATION = STAS FOUND 19  CATEGORIES
 *********************************************************************
 *             PROGRAM:WRF/CHEM V3.6 MODEL
 *                                                                   *
 *    PLEASE REPORT ANY BUGS TO WRF/CHEM HELP at                     *
 *                                                                   *
 *              wrfchemhelp.gsd@noaa.gov                             *
 *                                                                   *
 *********************************************************************
 WARNING: dust option 1 currently works only with the GOCART aerosol option.
 WARNING: sea salt option 1 currently works only with the GOCART aerosol option.
Timing for Writing wrfout_d02_2016-02-05_12:00:00 for domain        2:    1.90753 elapsed seconds
  mediation_integrate: med_read_wrf_chem_emissions: Open file wrfchemi_12z_d02
  HOURLY EMISSIONS UPDATE TIME         .0        .0
 mediation_integrate: med_read_wrf_chem_emissions: Read emissions for time 2016-02-05_12:00:00
 **WARNING** Time in input file not being checked **WARNING**
  Tile Strategy is not specified. Assuming 1D-Y
 WRF TILE   1 IS      1 IE     36 JS      1 JE     18
 WRF NUMBER OF TILES =   1
  photolysis_driver: called for domain  2
Timing for Writing wrfout_d03_2016-02-05_12:00:00 for domain        3:    1.72956 elapsed seconds
  mediation_integrate: med_read_wrf_chem_emissions: Open file wrfchemi_12z_d03
  HOURLY EMISSIONS UPDATE TIME         .0        .0
 mediation_integrate: med_read_wrf_chem_emissions: Read emissions for time 2016-02-05_12:00:00
 **WARNING** Time in input file not being checked **WARNING**
  Tile Strategy is not specified. Assuming 1D-Y
 WRF TILE   1 IS      1 IE     31 JS      1 JE     18
 WRF NUMBER OF TILES =   1
  photolysis_driver: called for domain  3
Timing for main: time 2016-02-05_12:00:13 on domain   3:    4.93981 elapsed seconds
Timing for main: time 2016-02-05_12:00:26 on domain   3:     .34783 elapsed seconds
Timing for main: time 2016-02-05_12:00:40 on domain   3:     .21280 elapsed seconds
Timing for Writing wrfout_d04_2016-02-05_12:00:00 for domain        4:    2.10629 elapsed seconds
  mediation_integrate: med_read_wrf_chem_emissions: Open file wrfchemi_12z_d04
  HOURLY EMISSIONS UPDATE TIME         .0        .0
 mediation_integrate: med_read_wrf_chem_emissions: Read emissions for time 2016-02-05_12:00:00
 **WARNING** Time in input file not being checked **WARNING**
  Tile Strategy is not specified. Assuming 1D-Y
 WRF TILE   1 IS      1 IE     22 JS      1 JE     28
 WRF NUMBER OF TILES =   1
  photolysis_driver: called for domain  4
Timing for main: time 2016-02-05_12:00:20 on domain   4:    6.90046 elapsed seconds
Timing for main: time 2016-02-05_12:00:40 on domain   4:     .24730 elapsed seconds
Timing for main: time 2016-02-05_12:00:40 on domain   2:   34.99290 elapsed seconds
Timing for main: time 2016-02-05_12:00:53 on domain   3:     .22047 elapsed seconds
Timing for main: time 2016-02-05_12:01:06 on domain   3:     .20646 elapsed seconds
Timing for main: time 2016-02-05_12:01:20 on domain   3:     .20940 elapsed seconds
Timing for main: time 2016-02-05_12:01:00 on domain   4:     .25841 elapsed seconds
Timing for main: time 2016-02-05_12:01:20 on domain   4:     .24826 elapsed seconds
Timing for main: time 2016-02-05_12:01:20 on domain   2:    1.84913 elapsed seconds
Timing for main: time 2016-02-05_12:01:33 on domain   3:     .22313 elapsed seconds
Timing for main: time 2016-02-05_12:01:46 on domain   3:     .21125 elapsed seconds
Timing for main: time 2016-02-05_12:02:00 on domain   3:     .21077 elapsed seconds
Timing for main: time 2016-02-05_12:01:40 on domain   4:     .24058 elapsed seconds
Timing for main: time 2016-02-05_12:02:00 on domain   4:     .23683 elapsed seconds
Timing for main: time 2016-02-05_12:02:00 on domain   2:    1.89113 elapsed seconds
Timing for main: time 2016-02-05_12:02:00 on domain   1:   55.52831 elapsed seconds
Timing for main: time 2016-02-05_12:02:13 on domain   3:     .21565 elapsed seconds
Timing for main: time 2016-02-05_12:02:26 on domain   3:     .24535 elapsed seconds
Timing for main: time 2016-02-05_12:02:40 on domain   3:     .21399 elapsed seconds
Timing for main: time 2016-02-05_12:02:20 on domain   4:     .24015 elapsed seconds
Timing for main: time 2016-02-05_12:02:40 on domain   4:     .23768 elapsed seconds
Timing for main: time 2016-02-05_12:02:40 on domain   2:    1.91336 elapsed seconds
Timing for main: time 2016-02-05_12:02:53 on domain   3:     .21634 elapsed seconds
Timing for main: time 2016-02-05_12:03:06 on domain   3:     .20519 elapsed seconds
Timing for main: time 2016-02-05_12:03:20 on domain   3:     .20546 elapsed seconds
Timing for main: time 2016-02-05_12:03:00 on domain   4:     .23558 elapsed seconds
Timing for main: time 2016-02-05_12:03:20 on domain   4:     .23788 elapsed seconds
Timing for main: time 2016-02-05_12:03:20 on domain   2:    1.85010 elapsed seconds
Timing for main: time 2016-02-05_12:03:33 on domain   3:     .21423 elapsed seconds
Timing for main: time 2016-02-05_12:03:46 on domain   3:     .20832 elapsed seconds
Timing for main: time 2016-02-05_12:04:00 on domain   3:     .20546 elapsed seconds
Timing for main: time 2016-02-05_12:03:40 on domain   4:     .24028 elapsed seconds
Timing for main: time 2016-02-05_12:04:00 on domain   4:     .23935 elapsed seconds
Timing for main: time 2016-02-05_12:04:00 on domain   2:    1.85080 elapsed seconds
Timing for main: time 2016-02-05_12:04:00 on domain   1:    5.96599 elapsed seconds
Timing for main: time 2016-02-05_12:04:13 on domain   3:     .21415 elapsed seconds
Timing for main: time 2016-02-05_12:04:26 on domain   3:     .20556 elapsed seconds
Timing for main: time 2016-02-05_12:04:40 on domain   3:     .20684 elapsed seconds
Timing for main: time 2016-02-05_12:04:20 on domain   4:     .24025 elapsed seconds
Timing for main: time 2016-02-05_12:04:40 on domain   4:     .23950 elapsed seconds
Timing for main: time 2016-02-05_12:04:40 on domain   2:    1.86649 elapsed seconds
Timing for main: time 2016-02-05_12:04:53 on domain   3:     .21429 elapsed seconds
Timing for main: time 2016-02-05_12:05:06 on domain   3:     .21434 elapsed seconds
Timing for main: time 2016-02-05_12:05:20 on domain   3:     .20699 elapsed seconds
Timing for main: time 2016-02-05_12:05:00 on domain   4:     .25093 elapsed seconds
Timing for main: time 2016-02-05_12:05:20 on domain   4:     .23887 elapsed seconds
Timing for main: time 2016-02-05_12:05:20 on domain   2:    1.88030 elapsed seconds
Timing for main: time 2016-02-05_12:05:33 on domain   3:     .21994 elapsed seconds
Timing for main: time 2016-02-05_12:05:46 on domain   3:     .20502 elapsed seconds
Timing for main: time 2016-02-05_12:06:00 on domain   3:     .20626 elapsed seconds
Timing for main: time 2016-02-05_12:05:40 on domain   4:     .24084 elapsed seconds
Timing for main: time 2016-02-05_12:06:00 on domain   4:     .23852 elapsed seconds
Timing for main: time 2016-02-05_12:06:00 on domain   2:    1.85547 elapsed seconds
Timing for main: time 2016-02-05_12:06:00 on domain   1:    5.98961 elapsed seconds
Timing for main: time 2016-02-05_12:06:13 on domain   3:     .21492 elapsed seconds
Timing for main: time 2016-02-05_12:06:26 on domain   3:     .20568 elapsed seconds
Timing for main: time 2016-02-05_12:06:40 on domain   3:     .20560 elapsed seconds
Timing for main: time 2016-02-05_12:06:20 on domain   4:     .24127 elapsed seconds
Timing for main: time 2016-02-05_12:06:40 on domain   4:     .23860 elapsed seconds
Timing for main: time 2016-02-05_12:06:40 on domain   2:    1.86614 elapsed seconds
Timing for main: time 2016-02-05_12:06:53 on domain   3:     .21394 elapsed seconds
Timing for main: time 2016-02-05_12:07:06 on domain   3:     .20626 elapsed seconds
Timing for main: time 2016-02-05_12:07:20 on domain   3:     .20573 elapsed seconds
Timing for main: time 2016-02-05_12:07:00 on domain   4:     .24106 elapsed seconds
Timing for main: time 2016-02-05_12:07:20 on domain   4:     .23877 elapsed seconds
Timing for main: time 2016-02-05_12:07:20 on domain   2:    1.84907 elapsed seconds
Timing for main: time 2016-02-05_12:07:33 on domain   3:     .21378 elapsed seconds
Timing for main: time 2016-02-05_12:07:46 on domain   3:     .20507 elapsed seconds
Timing for main: time 2016-02-05_12:08:00 on domain   3:     .20780 elapsed seconds
Timing for main: time 2016-02-05_12:07:40 on domain   4:     .24100 elapsed seconds
Timing for main: time 2016-02-05_12:08:00 on domain   4:     .23835 elapsed seconds
Timing for main: time 2016-02-05_12:08:00 on domain   2:    1.85065 elapsed seconds
Timing for main: time 2016-02-05_12:08:00 on domain   1:    5.94333 elapsed seconds
Timing for main: time 2016-02-05_12:08:13 on domain   3:     .21396 elapsed seconds
Timing for main: time 2016-02-05_12:08:26 on domain   3:     .20623 elapsed seconds
Timing for main: time 2016-02-05_12:08:40 on domain   3:     .20554 elapsed seconds
Timing for main: time 2016-02-05_12:08:20 on domain   4:     .24122 elapsed seconds
Timing for main: time 2016-02-05_12:08:40 on domain   4:     .23872 elapsed seconds
Timing for main: time 2016-02-05_12:08:40 on domain   2:    1.86622 elapsed seconds
Timing for main: time 2016-02-05_12:08:53 on domain   3:     .21395 elapsed seconds
Timing for main: time 2016-02-05_12:09:06 on domain   3:     .20693 elapsed seconds
Timing for main: time 2016-02-05_12:09:20 on domain   3:     .20573 elapsed seconds
Timing for main: time 2016-02-05_12:09:00 on domain   4:     .25207 elapsed seconds
Timing for main: time 2016-02-05_12:09:20 on domain   4:     .23813 elapsed seconds
Timing for main: time 2016-02-05_12:09:20 on domain   2:    1.86659 elapsed seconds
Timing for main: time 2016-02-05_12:09:33 on domain   3:     .21400 elapsed seconds
Timing for main: time 2016-02-05_12:09:46 on domain   3:     .20584 elapsed seconds
Timing for main: time 2016-02-05_12:10:00 on domain   3:     .20658 elapsed seconds
Timing for main: time 2016-02-05_12:09:40 on domain   4:     .24086 elapsed seconds
Timing for main: time 2016-02-05_12:10:00 on domain   4:     .24949 elapsed seconds
Timing for main: time 2016-02-05_12:10:00 on domain   2:    1.85990 elapsed seconds
Timing for main: time 2016-02-05_12:10:00 on domain   1:    5.96926 elapsed seconds
Timing for main: time 2016-02-05_12:10:13 on domain   3:     .22640 elapsed seconds
Timing for main: time 2016-02-05_12:10:26 on domain   3:     .20539 elapsed seconds
Timing for main: time 2016-02-05_12:10:40 on domain   3:     .20557 elapsed seconds
Timing for main: time 2016-02-05_12:10:20 on domain   4:     .24119 elapsed seconds
Timing for main: time 2016-02-05_12:10:40 on domain   4:     .24075 elapsed seconds
Timing for main: time 2016-02-05_12:10:40 on domain   2:    1.89248 elapsed seconds
Timing for main: time 2016-02-05_12:10:53 on domain   3:     .21422 elapsed seconds
Timing for main: time 2016-02-05_12:11:06 on domain   3:     .20633 elapsed seconds
Timing for main: time 2016-02-05_12:11:20 on domain   3:     .20594 elapsed seconds
Timing for main: time 2016-02-05_12:11:00 on domain   4:     .24441 elapsed seconds
Timing for main: time 2016-02-05_12:11:20 on domain   4:     .23885 elapsed seconds
Timing for main: time 2016-02-05_12:11:20 on domain   2:    1.85324 elapsed seconds
Timing for main: time 2016-02-05_12:11:33 on domain   3:     .21451 elapsed seconds
Timing for main: time 2016-02-05_12:11:46 on domain   3:     .20557 elapsed seconds
Timing for main: time 2016-02-05_12:12:00 on domain   3:     .20576 elapsed seconds
Timing for main: time 2016-02-05_12:11:40 on domain   4:     .24509 elapsed seconds
Timing for main: time 2016-02-05_12:12:00 on domain   4:     .24060 elapsed seconds
Timing for main: time 2016-02-05_12:12:00 on domain   2:    1.86280 elapsed seconds
Timing for main: time 2016-02-05_12:12:00 on domain   1:    5.99904 elapsed seconds
Timing for main: time 2016-02-05_12:12:13 on domain   3:     .21420 elapsed seconds
Timing for main: time 2016-02-05_12:12:26 on domain   3:     .20630 elapsed seconds
Timing for main: time 2016-02-05_12:12:40 on domain   3:     .20811 elapsed seconds
Timing for main: time 2016-02-05_12:12:20 on domain   4:     .24136 elapsed seconds
Timing for main: time 2016-02-05_12:12:40 on domain   4:     .23928 elapsed seconds
Timing for main: time 2016-02-05_12:12:40 on domain   2:    1.86978 elapsed seconds
Timing for main: time 2016-02-05_12:12:53 on domain   3:     .21401 elapsed seconds
Timing for main: time 2016-02-05_12:13:06 on domain   3:     .20561 elapsed seconds
Timing for main: time 2016-02-05_12:13:20 on domain   3:     .20554 elapsed seconds
Timing for main: time 2016-02-05_12:13:00 on domain   4:     .24164 elapsed seconds
Timing for main: time 2016-02-05_12:13:20 on domain   4:     .23876 elapsed seconds
Timing for main: time 2016-02-05_12:13:20 on domain   2:    1.85042 elapsed seconds
Timing for main: time 2016-02-05_12:13:33 on domain   3:     .21361 elapsed seconds
Timing for main: time 2016-02-05_12:13:46 on domain   3:     .20594 elapsed seconds
Timing for main: time 2016-02-05_12:14:00 on domain   3:     .20638 elapsed seconds
Timing for main: time 2016-02-05_12:13:40 on domain   4:     .24040 elapsed seconds
Timing for main: time 2016-02-05_12:14:00 on domain   4:     .23891 elapsed seconds
Timing for main: time 2016-02-05_12:14:00 on domain   2:    1.85018 elapsed seconds
Timing for main: time 2016-02-05_12:14:00 on domain   1:    5.94703 elapsed seconds
Timing for main: time 2016-02-05_12:14:13 on domain   3:     .21504 elapsed seconds
Timing for main: time 2016-02-05_12:14:26 on domain   3:     .20643 elapsed seconds
Timing for main: time 2016-02-05_12:14:40 on domain   3:     .20616 elapsed seconds
Timing for main: time 2016-02-05_12:14:20 on domain   4:     .24143 elapsed seconds
Timing for main: time 2016-02-05_12:14:40 on domain   4:     .23894 elapsed seconds
Timing for main: time 2016-02-05_12:14:40 on domain   2:    1.86881 elapsed seconds
Timing for main: time 2016-02-05_12:14:53 on domain   3:     .21380 elapsed seconds
Timing for main: time 2016-02-05_12:15:06 on domain   3:     .20576 elapsed seconds
Timing for main: time 2016-02-05_12:15:20 on domain   3:     .21494 elapsed seconds
Timing for main: time 2016-02-05_12:15:00 on domain   4:     .25195 elapsed seconds
Timing for main: time 2016-02-05_12:15:20 on domain   4:     .23918 elapsed seconds
Timing for main: time 2016-02-05_12:15:20 on domain   2:    1.87213 elapsed seconds
Timing for main: time 2016-02-05_12:15:33 on domain   3:     .21495 elapsed seconds
Timing for main: time 2016-02-05_12:15:46 on domain   3:     .20601 elapsed seconds
Timing for main: time 2016-02-05_12:16:00 on domain   3:     .20632 elapsed seconds
Timing for main: time 2016-02-05_12:15:40 on domain   4:     .24122 elapsed seconds
Timing for main: time 2016-02-05_12:16:00 on domain   4:     .23896 elapsed seconds
Timing for main: time 2016-02-05_12:16:00 on domain   2:    1.86206 elapsed seconds
Timing for main: time 2016-02-05_12:16:00 on domain   1:    5.97962 elapsed seconds
Timing for main: time 2016-02-05_12:16:13 on domain   3:     .21400 elapsed seconds
Timing for main: time 2016-02-05_12:16:26 on domain   3:     .20588 elapsed seconds
Timing for main: time 2016-02-05_12:16:40 on domain   3:     .20552 elapsed seconds
Timing for main: time 2016-02-05_12:16:20 on domain   4:     .24135 elapsed seconds
Timing for main: time 2016-02-05_12:16:40 on domain   4:     .23918 elapsed seconds
Timing for main: time 2016-02-05_12:16:40 on domain   2:    1.86691 elapsed seconds
Timing for main: time 2016-02-05_12:16:53 on domain   3:     .21386 elapsed seconds
Timing for main: time 2016-02-05_12:17:06 on domain   3:     .20617 elapsed seconds
Timing for main: time 2016-02-05_12:17:20 on domain   3:     .20665 elapsed seconds
Timing for main: time 2016-02-05_12:17:00 on domain   4:     .24167 elapsed seconds
Timing for main: time 2016-02-05_12:17:20 on domain   4:     .23899 elapsed seconds
Timing for main: time 2016-02-05_12:17:20 on domain   2:    1.85182 elapsed seconds
Timing for main: time 2016-02-05_12:17:33 on domain   3:     .21419 elapsed seconds
Timing for main: time 2016-02-05_12:17:46 on domain   3:     .20606 elapsed seconds
Timing for main: time 2016-02-05_12:18:00 on domain   3:     .20703 elapsed seconds
Timing for main: time 2016-02-05_12:17:40 on domain   4:     .24133 elapsed seconds
Timing for main: time 2016-02-05_12:18:00 on domain   4:     .24110 elapsed seconds
Timing for main: time 2016-02-05_12:18:00 on domain   2:    1.85551 elapsed seconds
Timing for main: time 2016-02-05_12:18:00 on domain   1:    5.95879 elapsed seconds
Timing for main: time 2016-02-05_12:18:13 on domain   3:     .21405 elapsed seconds
Timing for main: time 2016-02-05_12:18:26 on domain   3:     .20595 elapsed seconds
Timing for main: time 2016-02-05_12:18:40 on domain   3:     .20582 elapsed seconds
Timing for main: time 2016-02-05_12:18:20 on domain   4:     .24129 elapsed seconds
Timing for main: time 2016-02-05_12:18:40 on domain   4:     .23901 elapsed seconds
Timing for main: time 2016-02-05_12:18:40 on domain   2:    1.86790 elapsed seconds
Timing for main: time 2016-02-05_12:18:53 on domain   3:     .21381 elapsed seconds
Timing for main: time 2016-02-05_12:19:06 on domain   3:     .20594 elapsed seconds
Timing for main: time 2016-02-05_12:19:20 on domain   3:     .20578 elapsed seconds
Timing for main: time 2016-02-05_12:19:00 on domain   4:     .24189 elapsed seconds
Timing for main: time 2016-02-05_12:19:20 on domain   4:     .24015 elapsed seconds
Timing for main: time 2016-02-05_12:19:20 on domain   2:    1.85135 elapsed seconds
Timing for main: time 2016-02-05_12:19:33 on domain   3:     .21395 elapsed seconds
Timing for main: time 2016-02-05_12:19:46 on domain   3:     .20594 elapsed seconds
Timing for main: time 2016-02-05_12:20:00 on domain   3:     .20822 elapsed seconds
Timing for main: time 2016-02-05_12:19:40 on domain   4:     .24175 elapsed seconds
Timing for main: time 2016-02-05_12:20:00 on domain   4:     .24955 elapsed seconds
Timing for main: time 2016-02-05_12:20:00 on domain   2:    1.86178 elapsed seconds
Timing for main: time 2016-02-05_12:20:00 on domain   1:    5.95749 elapsed seconds
Timing for main: time 2016-02-05_12:20:13 on domain   3:     .21428 elapsed seconds
Timing for main: time 2016-02-05_12:20:26 on domain   3:     .21571 elapsed seconds
Timing for main: time 2016-02-05_12:20:40 on domain   3:     .20531 elapsed seconds
Timing for main: time 2016-02-05_12:20:20 on domain   4:     .24150 elapsed seconds
Timing for main: time 2016-02-05_12:20:40 on domain   4:     .23852 elapsed seconds
Timing for main: time 2016-02-05_12:20:40 on domain   2:    1.87848 elapsed seconds
Timing for main: time 2016-02-05_12:20:53 on domain   3:     .21400 elapsed seconds
Timing for main: time 2016-02-05_12:21:06 on domain   3:     .20558 elapsed seconds
Timing for main: time 2016-02-05_12:21:20 on domain   3:     .20584 elapsed seconds
Timing for main: time 2016-02-05_12:21:00 on domain   4:     .24142 elapsed seconds
Timing for main: time 2016-02-05_12:21:20 on domain   4:     .24414 elapsed seconds
Timing for main: time 2016-02-05_12:21:20 on domain   2:    1.86761 elapsed seconds
Timing for main: time 2016-02-05_12:21:33 on domain   3:     .21405 elapsed seconds
Timing for main: time 2016-02-05_12:21:46 on domain   3:     .20487 elapsed seconds
Timing for main: time 2016-02-05_12:22:00 on domain   3:     .20582 elapsed seconds
Timing for main: time 2016-02-05_12:21:40 on domain   4:     .24093 elapsed seconds
Timing for main: time 2016-02-05_12:22:00 on domain   4:     .23904 elapsed seconds
Timing for main: time 2016-02-05_12:22:00 on domain   2:    1.84879 elapsed seconds
Timing for main: time 2016-02-05_12:22:00 on domain   1:    5.97237 elapsed seconds
Timing for main: time 2016-02-05_12:22:13 on domain   3:     .21415 elapsed seconds
Timing for main: time 2016-02-05_12:22:26 on domain   3:     .20591 elapsed seconds
Timing for main: time 2016-02-05_12:22:40 on domain   3:     .20580 elapsed seconds
Timing for main: time 2016-02-05_12:22:20 on domain   4:     .24093 elapsed seconds
Timing for main: time 2016-02-05_12:22:40 on domain   4:     .23888 elapsed seconds
Timing for main: time 2016-02-05_12:22:40 on domain   2:    1.86577 elapsed seconds
Timing for main: time 2016-02-05_12:22:53 on domain   3:     .21444 elapsed seconds
Timing for main: time 2016-02-05_12:23:06 on domain   3:     .20470 elapsed seconds
Timing for main: time 2016-02-05_12:23:20 on domain   3:     .20604 elapsed seconds
Timing for main: time 2016-02-05_12:23:00 on domain   4:     .24269 elapsed seconds
Timing for main: time 2016-02-05_12:23:20 on domain   4:     .23881 elapsed seconds
Timing for main: time 2016-02-05_12:23:20 on domain   2:    1.84933 elapsed seconds
Timing for main: time 2016-02-05_12:23:33 on domain   3:     .21428 elapsed seconds
Timing for main: time 2016-02-05_12:23:46 on domain   3:     .20505 elapsed seconds
Timing for main: time 2016-02-05_12:24:00 on domain   3:     .20431 elapsed seconds
Timing for main: time 2016-02-05_12:23:40 on domain   4:     .24560 elapsed seconds
Timing for main: time 2016-02-05_12:24:00 on domain   4:     .23898 elapsed seconds
Timing for main: time 2016-02-05_12:24:00 on domain   2:    1.85124 elapsed seconds
Timing for main: time 2016-02-05_12:24:00 on domain   1:    5.95139 elapsed seconds
Timing for main: time 2016-02-05_12:24:13 on domain   3:     .21467 elapsed seconds
Timing for main: time 2016-02-05_12:24:26 on domain   3:     .20494 elapsed seconds
Timing for main: time 2016-02-05_12:24:40 on domain   3:     .20442 elapsed seconds
Timing for main: time 2016-02-05_12:24:20 on domain   4:     .24124 elapsed seconds
Timing for main: time 2016-02-05_12:24:40 on domain   4:     .23903 elapsed seconds
Timing for main: time 2016-02-05_12:24:40 on domain   2:    1.86297 elapsed seconds
Timing for main: time 2016-02-05_12:24:53 on domain   3:     .21405 elapsed seconds
Timing for main: time 2016-02-05_12:25:06 on domain   3:     .20455 elapsed seconds
Timing for main: time 2016-02-05_12:25:20 on domain   3:     .20485 elapsed seconds
Timing for main: time 2016-02-05_12:25:00 on domain   4:     .25200 elapsed seconds
Timing for main: time 2016-02-05_12:25:20 on domain   4:     .23903 elapsed seconds
Timing for main: time 2016-02-05_12:25:20 on domain   2:    1.85702 elapsed seconds
Timing for main: time 2016-02-05_12:25:33 on domain   3:     .22373 elapsed seconds
Timing for main: time 2016-02-05_12:25:46 on domain   3:     .20652 elapsed seconds
Timing for main: time 2016-02-05_12:26:00 on domain   3:     .20478 elapsed seconds
Timing for main: time 2016-02-05_12:25:40 on domain   4:     .24149 elapsed seconds
Timing for main: time 2016-02-05_12:26:00 on domain   4:     .24027 elapsed seconds
Timing for main: time 2016-02-05_12:26:00 on domain   2:    1.85972 elapsed seconds
Timing for main: time 2016-02-05_12:26:00 on domain   1:    5.95682 elapsed seconds
Timing for main: time 2016-02-05_12:26:13 on domain   3:     .21435 elapsed seconds
Timing for main: time 2016-02-05_12:26:26 on domain   3:     .20535 elapsed seconds
Timing for main: time 2016-02-05_12:26:40 on domain   3:     .20520 elapsed seconds
Timing for main: time 2016-02-05_12:26:20 on domain   4:     .24119 elapsed seconds
Timing for main: time 2016-02-05_12:26:40 on domain   4:     .23898 elapsed seconds
Timing for main: time 2016-02-05_12:26:40 on domain   2:    1.87527 elapsed seconds
Timing for main: time 2016-02-05_12:26:53 on domain   3:     .21480 elapsed seconds
Timing for main: time 2016-02-05_12:27:06 on domain   3:     .20468 elapsed seconds
Timing for main: time 2016-02-05_12:27:20 on domain   3:     .20429 elapsed seconds
Timing for main: time 2016-02-05_12:27:00 on domain   4:     .24313 elapsed seconds
Timing for main: time 2016-02-05_12:27:20 on domain   4:     .23946 elapsed seconds
Timing for main: time 2016-02-05_12:27:20 on domain   2:    1.85195 elapsed seconds
Timing for main: time 2016-02-05_12:27:33 on domain   3:     .21368 elapsed seconds
Timing for main: time 2016-02-05_12:27:46 on domain   3:     .20516 elapsed seconds
Timing for main: time 2016-02-05_12:28:00 on domain   3:     .20456 elapsed seconds
Timing for main: time 2016-02-05_12:27:40 on domain   4:     .24071 elapsed seconds
Timing for main: time 2016-02-05_12:28:00 on domain   4:     .23878 elapsed seconds
Timing for main: time 2016-02-05_12:28:00 on domain   2:    1.84673 elapsed seconds
Timing for main: time 2016-02-05_12:28:00 on domain   1:    5.95101 elapsed seconds
  photolysis_driver: called for domain  1
Timing for main: time 2016-02-05_12:28:13 on domain   3:     .21412 elapsed seconds
Timing for main: time 2016-02-05_12:28:26 on domain   3:     .20534 elapsed seconds
Timing for main: time 2016-02-05_12:28:40 on domain   3:     .20483 elapsed seconds
Timing for main: time 2016-02-05_12:28:20 on domain   4:     .24132 elapsed seconds
Timing for main: time 2016-02-05_12:28:40 on domain   4:     .24411 elapsed seconds
Timing for main: time 2016-02-05_12:28:40 on domain   2:    1.86904 elapsed seconds
Timing for main: time 2016-02-05_12:28:53 on domain   3:     .21388 elapsed seconds
Timing for main: time 2016-02-05_12:29:06 on domain   3:     .20657 elapsed seconds
Timing for main: time 2016-02-05_12:29:20 on domain   3:     .20490 elapsed seconds
Timing for main: time 2016-02-05_12:29:00 on domain   4:     .24206 elapsed seconds
Timing for main: time 2016-02-05_12:29:20 on domain   4:     .23909 elapsed seconds
Timing for main: time 2016-02-05_12:29:20 on domain   2:    1.84989 elapsed seconds
  photolysis_driver: called for domain  2
Timing for main: time 2016-02-05_12:29:33 on domain   3:     .21398 elapsed seconds
Timing for main: time 2016-02-05_12:29:46 on domain   3:     .20713 elapsed seconds
  photolysis_driver: called for domain  3
Timing for main: time 2016-02-05_12:30:00 on domain   3:    1.24634 elapsed seconds
Timing for main: time 2016-02-05_12:29:40 on domain   4:     .24228 elapsed seconds
  photolysis_driver: called for domain  4
Timing for main: time 2016-02-05_12:30:00 on domain   4:    1.38943 elapsed seconds
Timing for main: time 2016-02-05_12:30:00 on domain   2:    5.26336 elapsed seconds
Timing for main: time 2016-02-05_12:30:00 on domain   1:   10.11049 elapsed seconds
Timing for main: time 2016-02-05_12:30:13 on domain   3:     .41714 elapsed seconds
Timing for main: time 2016-02-05_12:30:26 on domain   3:     .20293 elapsed seconds
Timing for main: time 2016-02-05_12:30:40 on domain   3:     .21288 elapsed seconds
Timing for main: time 2016-02-05_12:30:20 on domain   4:     .46654 elapsed seconds
Timing for main: time 2016-02-05_12:30:40 on domain   4:     .23775 elapsed seconds
Timing for main: time 2016-02-05_12:30:40 on domain   2:    2.53788 elapsed seconds
Timing for main: time 2016-02-05_12:30:53 on domain   3:     .23895 elapsed seconds
Timing for main: time 2016-02-05_12:31:06 on domain   3:     .22668 elapsed seconds
Timing for main: time 2016-02-05_12:31:20 on domain   3:     .20354 elapsed seconds
Timing for main: time 2016-02-05_12:31:00 on domain   4:     .23956 elapsed seconds
Timing for main: time 2016-02-05_12:31:20 on domain   4:     .23740 elapsed seconds
Timing for main: time 2016-02-05_12:31:20 on domain   2:    1.88855 elapsed seconds
Timing for main: time 2016-02-05_12:31:33 on domain   3:     .21279 elapsed seconds
Timing for main: time 2016-02-05_12:31:46 on domain   3:     .20291 elapsed seconds
Timing for main: time 2016-02-05_12:32:00 on domain   3:     .20359 elapsed seconds
Timing for main: time 2016-02-05_12:31:40 on domain   4:     .23985 elapsed seconds
Timing for main: time 2016-02-05_12:32:00 on domain   4:     .23704 elapsed seconds
Timing for main: time 2016-02-05_12:32:00 on domain   2:    1.84994 elapsed seconds
Timing for main: time 2016-02-05_12:32:00 on domain   1:    6.82583 elapsed seconds
Timing for main: time 2016-02-05_12:32:13 on domain   3:     .21159 elapsed seconds
Timing for main: time 2016-02-05_12:32:26 on domain   3:     .20366 elapsed seconds
Timing for main: time 2016-02-05_12:32:40 on domain   3:     .20283 elapsed seconds
Timing for main: time 2016-02-05_12:32:20 on domain   4:     .23923 elapsed seconds
Timing for main: time 2016-02-05_12:32:40 on domain   4:     .23865 elapsed seconds
Timing for main: time 2016-02-05_12:32:40 on domain   2:    1.86079 elapsed seconds
Timing for main: time 2016-02-05_12:32:53 on domain   3:     .21262 elapsed seconds
Timing for main: time 2016-02-05_12:33:06 on domain   3:     .20324 elapsed seconds
Timing for main: time 2016-02-05_12:33:20 on domain   3:     .20316 elapsed seconds
Timing for main: time 2016-02-05_12:33:00 on domain   4:     .27557 elapsed seconds
Timing for main: time 2016-02-05_12:33:20 on domain   4:     .23786 elapsed seconds
Timing for main: time 2016-02-05_12:33:20 on domain   2:    1.87516 elapsed seconds
Timing for main: time 2016-02-05_12:33:33 on domain   3:     .21242 elapsed seconds
Timing for main: time 2016-02-05_12:33:46 on domain   3:     .20452 elapsed seconds
Timing for main: time 2016-02-05_12:34:00 on domain   3:     .20414 elapsed seconds
Timing for main: time 2016-02-05_12:33:40 on domain   4:     .23920 elapsed seconds
Timing for main: time 2016-02-05_12:34:00 on domain   4:     .23796 elapsed seconds
Timing for main: time 2016-02-05_12:34:00 on domain   2:    1.84066 elapsed seconds
Timing for main: time 2016-02-05_12:34:00 on domain   1:    5.95375 elapsed seconds
Timing for main: time 2016-02-05_12:34:13 on domain   3:     .21282 elapsed seconds
Timing for main: time 2016-02-05_12:34:26 on domain   3:     .20286 elapsed seconds
Timing for main: time 2016-02-05_12:34:40 on domain   3:     .20430 elapsed seconds
Timing for main: time 2016-02-05_12:34:20 on domain   4:     .25312 elapsed seconds
Timing for main: time 2016-02-05_12:34:40 on domain   4:     .31417 elapsed seconds
Timing for main: time 2016-02-05_12:34:40 on domain   2:    1.94741 elapsed seconds
Timing for main: time 2016-02-05_12:34:53 on domain   3:     .21196 elapsed seconds
Timing for main: time 2016-02-05_12:35:06 on domain   3:     .20305 elapsed seconds
Timing for main: time 2016-02-05_12:35:20 on domain   3:     .20378 elapsed seconds
Timing for main: time 2016-02-05_12:35:00 on domain   4:     .25062 elapsed seconds
Timing for main: time 2016-02-05_12:35:20 on domain   4:     .23742 elapsed seconds
Timing for main: time 2016-02-05_12:35:20 on domain   2:    1.84998 elapsed seconds
Timing for main: time 2016-02-05_12:35:33 on domain   3:     .21219 elapsed seconds
Timing for main: time 2016-02-05_12:35:46 on domain   3:     .21322 elapsed seconds
Timing for main: time 2016-02-05_12:36:00 on domain   3:     .20331 elapsed seconds
Timing for main: time 2016-02-05_12:35:40 on domain   4:     .24105 elapsed seconds
Timing for main: time 2016-02-05_12:36:00 on domain   4:     .23748 elapsed seconds
Timing for main: time 2016-02-05_12:36:00 on domain   2:    1.85257 elapsed seconds
Timing for main: time 2016-02-05_12:36:00 on domain   1:    6.03548 elapsed seconds
Timing for main: time 2016-02-05_12:36:13 on domain   3:     .21316 elapsed seconds
Timing for main: time 2016-02-05_12:36:26 on domain   3:     .20383 elapsed seconds
Timing for main: time 2016-02-05_12:36:40 on domain   3:     .20355 elapsed seconds
Timing for main: time 2016-02-05_12:36:20 on domain   4:     .23972 elapsed seconds
Timing for main: time 2016-02-05_12:36:40 on domain   4:     .23888 elapsed seconds
Timing for main: time 2016-02-05_12:36:40 on domain   2:    1.86037 elapsed seconds
Timing for main: time 2016-02-05_12:36:53 on domain   3:     .21263 elapsed seconds
Timing for main: time 2016-02-05_12:37:06 on domain   3:     .20312 elapsed seconds
Timing for main: time 2016-02-05_12:37:20 on domain   3:     .20326 elapsed seconds
Timing for main: time 2016-02-05_12:37:00 on domain   4:     .23981 elapsed seconds
Timing for main: time 2016-02-05_12:37:20 on domain   4:     .24381 elapsed seconds
Timing for main: time 2016-02-05_12:37:20 on domain   2:    1.85725 elapsed seconds
Timing for main: time 2016-02-05_12:37:33 on domain   3:     .21371 elapsed seconds
Timing for main: time 2016-02-05_12:37:46 on domain   3:     .20695 elapsed seconds
Timing for main: time 2016-02-05_12:38:00 on domain   3:     .20367 elapsed seconds
Timing for main: time 2016-02-05_12:37:40 on domain   4:     .24044 elapsed seconds
Timing for main: time 2016-02-05_12:38:00 on domain   4:     .23745 elapsed seconds
Timing for main: time 2016-02-05_12:38:00 on domain   2:    1.84630 elapsed seconds
Timing for main: time 2016-02-05_12:38:00 on domain   1:    5.94056 elapsed seconds
Timing for main: time 2016-02-05_12:38:13 on domain   3:     .21264 elapsed seconds
Timing for main: time 2016-02-05_12:38:26 on domain   3:     .20295 elapsed seconds
Timing for main: time 2016-02-05_12:38:40 on domain   3:     .20300 elapsed seconds
Timing for main: time 2016-02-05_12:38:20 on domain   4:     .23977 elapsed seconds
Timing for main: time 2016-02-05_12:38:40 on domain   4:     .23993 elapsed seconds
Timing for main: time 2016-02-05_12:38:40 on domain   2:    1.85865 elapsed seconds
Timing for main: time 2016-02-05_12:38:53 on domain   3:     .21275 elapsed seconds
Timing for main: time 2016-02-05_12:39:06 on domain   3:     .20270 elapsed seconds
Timing for main: time 2016-02-05_12:39:20 on domain   3:     .20310 elapsed seconds
Timing for main: time 2016-02-05_12:39:00 on domain   4:     .24157 elapsed seconds
Timing for main: time 2016-02-05_12:39:20 on domain   4:     .23747 elapsed seconds
Timing for main: time 2016-02-05_12:39:20 on domain   2:    1.84019 elapsed seconds
Timing for main: time 2016-02-05_12:39:33 on domain   3:     .21264 elapsed seconds
Timing for main: time 2016-02-05_12:39:46 on domain   3:     .20315 elapsed seconds
Timing for main: time 2016-02-05_12:40:00 on domain   3:     .20473 elapsed seconds
Timing for main: time 2016-02-05_12:39:40 on domain   4:     .23918 elapsed seconds
Timing for main: time 2016-02-05_12:40:00 on domain   4:     .25940 elapsed seconds
Timing for main: time 2016-02-05_12:40:00 on domain   2:    1.86205 elapsed seconds
Timing for main: time 2016-02-05_12:40:00 on domain   1:    5.93780 elapsed seconds
Timing for main: time 2016-02-05_12:40:13 on domain   3:     .20308 elapsed seconds
Timing for main: time 2016-02-05_12:40:26 on domain   3:     .20354 elapsed seconds
Timing for main: time 2016-02-05_12:40:40 on domain   3:     .20309 elapsed seconds
Timing for main: time 2016-02-05_12:40:20 on domain   4:     .23955 elapsed seconds
Timing for main: time 2016-02-05_12:40:40 on domain   4:     .23862 elapsed seconds
Timing for main: time 2016-02-05_12:40:40 on domain   2:    1.87638 elapsed seconds
Timing for main: time 2016-02-05_12:40:53 on domain   3:     .22239 elapsed seconds
Timing for main: time 2016-02-05_12:41:06 on domain   3:     .20490 elapsed seconds
Timing for main: time 2016-02-05_12:41:20 on domain   3:     .20325 elapsed seconds
Timing for main: time 2016-02-05_12:41:00 on domain   4:     .23945 elapsed seconds
Timing for main: time 2016-02-05_12:41:20 on domain   4:     .23738 elapsed seconds
Timing for main: time 2016-02-05_12:41:20 on domain   2:    1.85253 elapsed seconds
Timing for main: time 2016-02-05_12:41:33 on domain   3:     .21019 elapsed seconds
Timing for main: time 2016-02-05_12:41:46 on domain   3:     .20444 elapsed seconds
Timing for main: time 2016-02-05_12:42:00 on domain   3:     .20403 elapsed seconds
Timing for main: time 2016-02-05_12:41:40 on domain   4:     .23858 elapsed seconds
Timing for main: time 2016-02-05_12:42:00 on domain   4:     .23755 elapsed seconds
Timing for main: time 2016-02-05_12:42:00 on domain   2:    1.91305 elapsed seconds
Timing for main: time 2016-02-05_12:42:00 on domain   1:    6.03700 elapsed seconds
Timing for main: time 2016-02-05_12:42:13 on domain   3:     .21610 elapsed seconds
Timing for main: time 2016-02-05_12:42:26 on domain   3:     .20308 elapsed seconds
Timing for main: time 2016-02-05_12:42:40 on domain   3:     .20367 elapsed seconds
Timing for main: time 2016-02-05_12:42:20 on domain   4:     .28367 elapsed seconds
Timing for main: time 2016-02-05_12:42:40 on domain   4:     .25483 elapsed seconds
Timing for main: time 2016-02-05_12:42:40 on domain   2:    1.93146 elapsed seconds
Timing for main: time 2016-02-05_12:42:53 on domain   3:     .21213 elapsed seconds
Timing for main: time 2016-02-05_12:43:06 on domain   3:     .20386 elapsed seconds
Timing for main: time 2016-02-05_12:43:20 on domain   3:     .20317 elapsed seconds
Timing for main: time 2016-02-05_12:43:00 on domain   4:     .24103 elapsed seconds
Timing for main: time 2016-02-05_12:43:20 on domain   4:     .23805 elapsed seconds
Timing for main: time 2016-02-05_12:43:20 on domain   2:    1.84122 elapsed seconds
Timing for main: time 2016-02-05_12:43:33 on domain   3:     .21159 elapsed seconds
Timing for main: time 2016-02-05_12:43:46 on domain   3:     .20507 elapsed seconds
Timing for main: time 2016-02-05_12:44:00 on domain   3:     .20244 elapsed seconds
Timing for main: time 2016-02-05_12:43:40 on domain   4:     .23987 elapsed seconds
Timing for main: time 2016-02-05_12:44:00 on domain   4:     .23738 elapsed seconds
Timing for main: time 2016-02-05_12:44:00 on domain   2:    1.84003 elapsed seconds
Timing for main: time 2016-02-05_12:44:00 on domain   1:    5.98898 elapsed seconds
Timing for main: time 2016-02-05_12:44:13 on domain   3:     .21490 elapsed seconds
Timing for main: time 2016-02-05_12:44:26 on domain   3:     .20325 elapsed seconds
Timing for main: time 2016-02-05_12:44:40 on domain   3:     .20334 elapsed seconds
Timing for main: time 2016-02-05_12:44:20 on domain   4:     .23911 elapsed seconds
Timing for main: time 2016-02-05_12:44:40 on domain   4:     .23907 elapsed seconds
Timing for main: time 2016-02-05_12:44:40 on domain   2:    1.85986 elapsed seconds
Timing for main: time 2016-02-05_12:44:53 on domain   3:     .21409 elapsed seconds
Timing for main: time 2016-02-05_12:45:06 on domain   3:     .20409 elapsed seconds
Timing for main: time 2016-02-05_12:45:20 on domain   3:     .20298 elapsed seconds
Timing for main: time 2016-02-05_12:45:00 on domain   4:     .25037 elapsed seconds
Timing for main: time 2016-02-05_12:45:20 on domain   4:     .23741 elapsed seconds
Timing for main: time 2016-02-05_12:45:20 on domain   2:    1.85222 elapsed seconds
Timing for main: time 2016-02-05_12:45:33 on domain   3:     .21315 elapsed seconds
Timing for main: time 2016-02-05_12:45:46 on domain   3:     .20408 elapsed seconds
Timing for main: time 2016-02-05_12:46:00 on domain   3:     .21142 elapsed seconds
Timing for main: time 2016-02-05_12:45:40 on domain   4:     .23985 elapsed seconds
Timing for main: time 2016-02-05_12:46:00 on domain   4:     .23788 elapsed seconds
Timing for main: time 2016-02-05_12:46:00 on domain   2:    1.85026 elapsed seconds
Timing for main: time 2016-02-05_12:46:00 on domain   1:    5.93860 elapsed seconds
Timing for main: time 2016-02-05_12:46:13 on domain   3:     .21280 elapsed seconds
Timing for main: time 2016-02-05_12:46:26 on domain   3:     .20338 elapsed seconds
Timing for main: time 2016-02-05_12:46:40 on domain   3:     .20285 elapsed seconds
Timing for main: time 2016-02-05_12:46:20 on domain   4:     .24532 elapsed seconds
Timing for main: time 2016-02-05_12:46:40 on domain   4:     .23713 elapsed seconds
Timing for main: time 2016-02-05_12:46:40 on domain   2:    1.86076 elapsed seconds
Timing for main: time 2016-02-05_12:46:53 on domain   3:     .21308 elapsed seconds
Timing for main: time 2016-02-05_12:47:06 on domain   3:     .20326 elapsed seconds
Timing for main: time 2016-02-05_12:47:20 on domain   3:     .20350 elapsed seconds
Timing for main: time 2016-02-05_12:47:00 on domain   4:     .23970 elapsed seconds
Timing for main: time 2016-02-05_12:47:20 on domain   4:     .23775 elapsed seconds
Timing for main: time 2016-02-05_12:47:20 on domain   2:    1.84000 elapsed seconds
Timing for main: time 2016-02-05_12:47:33 on domain   3:     .21298 elapsed seconds
Timing for main: time 2016-02-05_12:47:46 on domain   3:     .20358 elapsed seconds
Timing for main: time 2016-02-05_12:48:00 on domain   3:     .20404 elapsed seconds
Timing for main: time 2016-02-05_12:47:40 on domain   4:     .25597 elapsed seconds
Timing for main: time 2016-02-05_12:48:00 on domain   4:     .23680 elapsed seconds
Timing for main: time 2016-02-05_12:48:00 on domain   2:    1.86894 elapsed seconds
Timing for main: time 2016-02-05_12:48:00 on domain   1:    5.95385 elapsed seconds
Timing for main: time 2016-02-05_12:48:13 on domain   3:     .21283 elapsed seconds
Timing for main: time 2016-02-05_12:48:26 on domain   3:     .20341 elapsed seconds
Timing for main: time 2016-02-05_12:48:40 on domain   3:     .20301 elapsed seconds
Timing for main: time 2016-02-05_12:48:20 on domain   4:     .24176 elapsed seconds
Timing for main: time 2016-02-05_12:48:40 on domain   4:     .23872 elapsed seconds
Timing for main: time 2016-02-05_12:48:40 on domain   2:    1.85927 elapsed seconds
Timing for main: time 2016-02-05_12:48:53 on domain   3:     .21316 elapsed seconds
Timing for main: time 2016-02-05_12:49:06 on domain   3:     .20397 elapsed seconds
Timing for main: time 2016-02-05_12:49:20 on domain   3:     .20298 elapsed seconds
Timing for main: time 2016-02-05_12:49:00 on domain   4:     .24002 elapsed seconds
Timing for main: time 2016-02-05_12:49:20 on domain   4:     .23697 elapsed seconds
Timing for main: time 2016-02-05_12:49:20 on domain   2:    1.85249 elapsed seconds
Timing for main: time 2016-02-05_12:49:33 on domain   3:     .21394 elapsed seconds
Timing for main: time 2016-02-05_12:49:46 on domain   3:     .20391 elapsed seconds
Timing for main: time 2016-02-05_12:50:00 on domain   3:     .20434 elapsed seconds
Timing for main: time 2016-02-05_12:49:40 on domain   4:     .24464 elapsed seconds
Timing for main: time 2016-02-05_12:50:00 on domain   4:     .24821 elapsed seconds
Timing for main: time 2016-02-05_12:50:00 on domain   2:    1.85792 elapsed seconds
Timing for main: time 2016-02-05_12:50:00 on domain   1:    5.94613 elapsed seconds
Timing for main: time 2016-02-05_12:50:13 on domain   3:     .21240 elapsed seconds
Timing for main: time 2016-02-05_12:50:26 on domain   3:     .20345 elapsed seconds
Timing for main: time 2016-02-05_12:50:40 on domain   3:     .20298 elapsed seconds
Timing for main: time 2016-02-05_12:50:20 on domain   4:     .24206 elapsed seconds
Timing for main: time 2016-02-05_12:50:40 on domain   4:     .23741 elapsed seconds
Timing for main: time 2016-02-05_12:50:40 on domain   2:    1.85746 elapsed seconds
Timing for main: time 2016-02-05_12:50:53 on domain   3:     .21326 elapsed seconds
Timing for main: time 2016-02-05_12:51:06 on domain   3:     .21253 elapsed seconds
Timing for main: time 2016-02-05_12:51:20 on domain   3:     .20598 elapsed seconds
Timing for main: time 2016-02-05_12:51:00 on domain   4:     .24061 elapsed seconds
Timing for main: time 2016-02-05_12:51:20 on domain   4:     .23755 elapsed seconds
Timing for main: time 2016-02-05_12:51:20 on domain   2:    1.85210 elapsed seconds
Timing for main: time 2016-02-05_12:51:33 on domain   3:     .21213 elapsed seconds
Timing for main: time 2016-02-05_12:51:46 on domain   3:     .20353 elapsed seconds
Timing for main: time 2016-02-05_12:52:00 on domain   3:     .20341 elapsed seconds
Timing for main: time 2016-02-05_12:51:40 on domain   4:     .24022 elapsed seconds
Timing for main: time 2016-02-05_12:52:00 on domain   4:     .23630 elapsed seconds
Timing for main: time 2016-02-05_12:52:00 on domain   2:    1.83766 elapsed seconds
Timing for main: time 2016-02-05_12:52:00 on domain   1:    5.93046 elapsed seconds
Timing for main: time 2016-02-05_12:52:13 on domain   3:     .21309 elapsed seconds
Timing for main: time 2016-02-05_12:52:26 on domain   3:     .20765 elapsed seconds
Timing for main: time 2016-02-05_12:52:40 on domain   3:     .19986 elapsed seconds
Timing for main: time 2016-02-05_12:52:20 on domain   4:     .24019 elapsed seconds
Timing for main: time 2016-02-05_12:52:40 on domain   4:     .23634 elapsed seconds
Timing for main: time 2016-02-05_12:52:40 on domain   2:    1.85612 elapsed seconds
Timing for main: time 2016-02-05_12:52:53 on domain   3:     .21314 elapsed seconds
Timing for main: time 2016-02-05_12:53:06 on domain   3:     .20359 elapsed seconds
Timing for main: time 2016-02-05_12:53:20 on domain   3:     .20346 elapsed seconds
Timing for main: time 2016-02-05_12:53:00 on domain   4:     .23918 elapsed seconds
Timing for main: time 2016-02-05_12:53:20 on domain   4:     .23745 elapsed seconds
Timing for main: time 2016-02-05_12:53:20 on domain   2:    1.85096 elapsed seconds
Timing for main: time 2016-02-05_12:53:33 on domain   3:     .21278 elapsed seconds
Timing for main: time 2016-02-05_12:53:46 on domain   3:     .20285 elapsed seconds
Timing for main: time 2016-02-05_12:54:00 on domain   3:     .20349 elapsed seconds
Timing for main: time 2016-02-05_12:53:40 on domain   4:     .23994 elapsed seconds
Timing for main: time 2016-02-05_12:54:00 on domain   4:     .23717 elapsed seconds
Timing for main: time 2016-02-05_12:54:00 on domain   2:    1.83981 elapsed seconds
Timing for main: time 2016-02-05_12:54:00 on domain   1:    5.93065 elapsed seconds
Timing for main: time 2016-02-05_12:54:13 on domain   3:     .21303 elapsed seconds
Timing for main: time 2016-02-05_12:54:26 on domain   3:     .20330 elapsed seconds
Timing for main: time 2016-02-05_12:54:40 on domain   3:     .20619 elapsed seconds
Timing for main: time 2016-02-05_12:54:20 on domain   4:     .24176 elapsed seconds
Timing for main: time 2016-02-05_12:54:40 on domain   4:     .23715 elapsed seconds
Timing for main: time 2016-02-05_12:54:40 on domain   2:    1.86124 elapsed seconds
Timing for main: time 2016-02-05_12:54:53 on domain   3:     .21292 elapsed seconds
Timing for main: time 2016-02-05_12:55:06 on domain   3:     .20342 elapsed seconds
Timing for main: time 2016-02-05_12:55:20 on domain   3:     .20305 elapsed seconds
Timing for main: time 2016-02-05_12:55:00 on domain   4:     .25067 elapsed seconds
Timing for main: time 2016-02-05_12:55:20 on domain   4:     .23726 elapsed seconds
Timing for main: time 2016-02-05_12:55:20 on domain   2:    1.85091 elapsed seconds
Timing for main: time 2016-02-05_12:55:33 on domain   3:     .21260 elapsed seconds
Timing for main: time 2016-02-05_12:55:46 on domain   3:     .20548 elapsed seconds
Timing for main: time 2016-02-05_12:56:00 on domain   3:     .20322 elapsed seconds
Timing for main: time 2016-02-05_12:55:40 on domain   4:     .24015 elapsed seconds
Timing for main: time 2016-02-05_12:56:00 on domain   4:     .23727 elapsed seconds
Timing for main: time 2016-02-05_12:56:00 on domain   2:    1.84181 elapsed seconds
Timing for main: time 2016-02-05_12:56:00 on domain   1:    5.93084 elapsed seconds
Timing for main: time 2016-02-05_12:56:13 on domain   3:     .22182 elapsed seconds
Timing for main: time 2016-02-05_12:56:26 on domain   3:     .20307 elapsed seconds
Timing for main: time 2016-02-05_12:56:40 on domain   3:     .20336 elapsed seconds
Timing for main: time 2016-02-05_12:56:20 on domain   4:     .23966 elapsed seconds
Timing for main: time 2016-02-05_12:56:40 on domain   4:     .23759 elapsed seconds
Timing for main: time 2016-02-05_12:56:40 on domain   2:    1.86598 elapsed seconds
Timing for main: time 2016-02-05_12:56:53 on domain   3:     .21362 elapsed seconds
Timing for main: time 2016-02-05_12:57:06 on domain   3:     .20355 elapsed seconds
Timing for main: time 2016-02-05_12:57:20 on domain   3:     .20307 elapsed seconds
Timing for main: time 2016-02-05_12:57:00 on domain   4:     .24009 elapsed seconds
Timing for main: time 2016-02-05_12:57:20 on domain   4:     .23726 elapsed seconds
Timing for main: time 2016-02-05_12:57:20 on domain   2:    1.84639 elapsed seconds
Timing for main: time 2016-02-05_12:57:33 on domain   3:     .21269 elapsed seconds
Timing for main: time 2016-02-05_12:57:46 on domain   3:     .20338 elapsed seconds
Timing for main: time 2016-02-05_12:58:00 on domain   3:     .20392 elapsed seconds
Timing for main: time 2016-02-05_12:57:40 on domain   4:     .24036 elapsed seconds
Timing for main: time 2016-02-05_12:58:00 on domain   4:     .23715 elapsed seconds
Timing for main: time 2016-02-05_12:58:00 on domain   2:    1.84127 elapsed seconds
Timing for main: time 2016-02-05_12:58:00 on domain   1:    5.93090 elapsed seconds
  photolysis_driver: called for domain  1
Timing for main: time 2016-02-05_12:58:13 on domain   3:     .21284 elapsed seconds
Timing for main: time 2016-02-05_12:58:26 on domain   3:     .20357 elapsed seconds
Timing for main: time 2016-02-05_12:58:40 on domain   3:     .20494 elapsed seconds
Timing for main: time 2016-02-05_12:58:20 on domain   4:     .24024 elapsed seconds
Timing for main: time 2016-02-05_12:58:40 on domain   4:     .23727 elapsed seconds
Timing for main: time 2016-02-05_12:58:40 on domain   2:    1.86626 elapsed seconds
Timing for main: time 2016-02-05_12:58:53 on domain   3:     .21273 elapsed seconds
Timing for main: time 2016-02-05_12:59:06 on domain   3:     .20293 elapsed seconds
Timing for main: time 2016-02-05_12:59:20 on domain   3:     .20323 elapsed seconds
Timing for main: time 2016-02-05_12:59:00 on domain   4:     .24007 elapsed seconds
Timing for main: time 2016-02-05_12:59:20 on domain   4:     .23730 elapsed seconds
Timing for main: time 2016-02-05_12:59:20 on domain   2:    1.84166 elapsed seconds
  photolysis_driver: called for domain  2
Timing for main: time 2016-02-05_12:59:33 on domain   3:     .22008 elapsed seconds
Timing for main: time 2016-02-05_12:59:46 on domain   3:     .20310 elapsed seconds
  photolysis_driver: called for domain  3
Timing for main: time 2016-02-05_13:00:00 on domain   3:    1.24333 elapsed seconds
Timing for main: time 2016-02-05_12:59:40 on domain   4:     .24377 elapsed seconds
  photolysis_driver: called for domain  4
Timing for main: time 2016-02-05_13:00:00 on domain   4:    1.38972 elapsed seconds
Timing for main: time 2016-02-05_13:00:00 on domain   2:    5.24662 elapsed seconds
Timing for main: time 2016-02-05_13:00:00 on domain   1:   10.08246 elapsed seconds
Timing for Writing wrfout_d01_2016-02-05_13:00:00 for domain        1:    1.37436 elapsed seconds
  HOURLY EMISSIONS UPDATE TIME     3600.0        .0
 mediation_integrate: med_read_wrf_chem_emissions: Read emissions for time 2016-02-05_13:00:00
 **WARNING** Time in input file not being checked **WARNING**
Timing for Writing wrfout_d02_2016-02-05_13:00:00 for domain        2:    1.93002 elapsed seconds
Timing for Writing wrfout_d03_2016-02-05_13:00:00 for domain        3:    2.11309 elapsed seconds
Timing for main: time 2016-02-05_13:00:13 on domain   3:    2.60125 elapsed seconds
Timing for main: time 2016-02-05_13:00:26 on domain   3:     .24123 elapsed seconds
Timing for main: time 2016-02-05_13:00:40 on domain   3:     .21171 elapsed seconds
Timing for Writing wrfout_d04_2016-02-05_13:00:00 for domain        4:    1.94209 elapsed seconds
Timing for main: time 2016-02-05_13:00:20 on domain   4:    2.48227 elapsed seconds
Timing for main: time 2016-02-05_13:00:40 on domain   4:     .29232 elapsed seconds
Timing for main: time 2016-02-05_13:00:40 on domain   2:    8.82308 elapsed seconds
Timing for main: time 2016-02-05_13:00:53 on domain   3:     .21289 elapsed seconds
Timing for main: time 2016-02-05_13:01:06 on domain   3:     .20350 elapsed seconds
Timing for main: time 2016-02-05_13:01:20 on domain   3:     .21294 elapsed seconds
Timing for main: time 2016-02-05_13:01:00 on domain   4:     .23969 elapsed seconds
Timing for main: time 2016-02-05_13:01:20 on domain   4:     .23952 elapsed seconds
Timing for main: time 2016-02-05_13:01:20 on domain   2:    1.85673 elapsed seconds
Timing for main: time 2016-02-05_13:01:33 on domain   3:     .21329 elapsed seconds
Timing for main: time 2016-02-05_13:01:46 on domain   3:     .20649 elapsed seconds
Timing for main: time 2016-02-05_13:02:00 on domain   3:     .20308 elapsed seconds
Timing for main: time 2016-02-05_13:01:40 on domain   4:     .23945 elapsed seconds
Timing for main: time 2016-02-05_13:02:00 on domain   4:     .23927 elapsed seconds
Timing for main: time 2016-02-05_13:02:00 on domain   2:    1.84538 elapsed seconds
Timing for main: time 2016-02-05_13:02:00 on domain   1:   15.27118 elapsed seconds
Timing for main: time 2016-02-05_13:02:13 on domain   3:     .21419 elapsed seconds
Timing for main: time 2016-02-05_13:02:26 on domain   3:     .20319 elapsed seconds
Timing for main: time 2016-02-05_13:02:40 on domain   3:     .20360 elapsed seconds
Timing for main: time 2016-02-05_13:02:20 on domain   4:     .23872 elapsed seconds
Timing for main: time 2016-02-05_13:02:40 on domain   4:     .23796 elapsed seconds
Timing for main: time 2016-02-05_13:02:40 on domain   2:    1.86277 elapsed seconds
Timing for main: time 2016-02-05_13:02:53 on domain   3:     .21282 elapsed seconds
Timing for main: time 2016-02-05_13:03:06 on domain   3:     .20332 elapsed seconds
Timing for main: time 2016-02-05_13:03:20 on domain   3:     .20530 elapsed seconds
Timing for main: time 2016-02-05_13:03:00 on domain   4:     .24085 elapsed seconds
Timing for main: time 2016-02-05_13:03:20 on domain   4:     .23751 elapsed seconds
Timing for main: time 2016-02-05_13:03:20 on domain   2:    1.84327 elapsed seconds
Timing for main: time 2016-02-05_13:03:33 on domain   3:     .21448 elapsed seconds
Timing for main: time 2016-02-05_13:03:46 on domain   3:     .20141 elapsed seconds
Timing for main: time 2016-02-05_13:04:00 on domain   3:     .20365 elapsed seconds
Timing for main: time 2016-02-05_13:03:40 on domain   4:     .23991 elapsed seconds
Timing for main: time 2016-02-05_13:04:00 on domain   4:     .23719 elapsed seconds
Timing for main: time 2016-02-05_13:04:00 on domain   2:    1.85243 elapsed seconds
Timing for main: time 2016-02-05_13:04:00 on domain   1:    5.93664 elapsed seconds
Timing for main: time 2016-02-05_13:04:13 on domain   3:     .21250 elapsed seconds
Timing for main: time 2016-02-05_13:04:26 on domain   3:     .20365 elapsed seconds
Timing for main: time 2016-02-05_13:04:40 on domain   3:     .21959 elapsed seconds
Timing for main: time 2016-02-05_13:04:20 on domain   4:     .23974 elapsed seconds
Timing for main: time 2016-02-05_13:04:40 on domain   4:     .23743 elapsed seconds
Timing for main: time 2016-02-05_13:04:40 on domain   2:    1.87496 elapsed seconds
Timing for main: time 2016-02-05_13:04:53 on domain   3:     .21275 elapsed seconds
Timing for main: time 2016-02-05_13:05:06 on domain   3:     .20595 elapsed seconds
Timing for main: time 2016-02-05_13:05:20 on domain   3:     .20399 elapsed seconds
Timing for main: time 2016-02-05_13:05:00 on domain   4:     .24996 elapsed seconds
Timing for main: time 2016-02-05_13:05:20 on domain   4:     .24105 elapsed seconds
Timing for main: time 2016-02-05_13:05:20 on domain   2:    1.85747 elapsed seconds
Timing for main: time 2016-02-05_13:05:33 on domain   3:     .21234 elapsed seconds
Timing for main: time 2016-02-05_13:05:46 on domain   3:     .20339 elapsed seconds
Timing for main: time 2016-02-05_13:06:00 on domain   3:     .21151 elapsed seconds
Timing for main: time 2016-02-05_13:05:40 on domain   4:     .23969 elapsed seconds
Timing for main: time 2016-02-05_13:06:00 on domain   4:     .23742 elapsed seconds
Timing for main: time 2016-02-05_13:06:00 on domain   2:    1.87038 elapsed seconds
Timing for main: time 2016-02-05_13:06:00 on domain   1:    5.98809 elapsed seconds
Timing for main: time 2016-02-05_13:06:13 on domain   3:     .21377 elapsed seconds
Timing for main: time 2016-02-05_13:06:26 on domain   3:     .22007 elapsed seconds
Timing for main: time 2016-02-05_13:06:40 on domain   3:     .29607 elapsed seconds
Timing for main: time 2016-02-05_13:06:20 on domain   4:     .23979 elapsed seconds
Timing for main: time 2016-02-05_13:06:40 on domain   4:     .24086 elapsed seconds
Timing for main: time 2016-02-05_13:06:40 on domain   2:    1.96585 elapsed seconds
Timing for main: time 2016-02-05_13:06:53 on domain   3:     .21258 elapsed seconds
Timing for main: time 2016-02-05_13:07:06 on domain   3:     .20311 elapsed seconds
Timing for main: time 2016-02-05_13:07:20 on domain   3:     .20342 elapsed seconds
Timing for main: time 2016-02-05_13:07:00 on domain   4:     .24040 elapsed seconds
Timing for main: time 2016-02-05_13:07:20 on domain   4:     .23738 elapsed seconds
Timing for main: time 2016-02-05_13:07:20 on domain   2:    1.84057 elapsed seconds
Timing for main: time 2016-02-05_13:07:33 on domain   3:     .21329 elapsed seconds
Timing for main: time 2016-02-05_13:07:46 on domain   3:     .20299 elapsed seconds
Timing for main: time 2016-02-05_13:08:00 on domain   3:     .20347 elapsed seconds
Timing for main: time 2016-02-05_13:07:40 on domain   4:     .23942 elapsed seconds
Timing for main: time 2016-02-05_13:08:00 on domain   4:     .23756 elapsed seconds
Timing for main: time 2016-02-05_13:08:00 on domain   2:    1.84008 elapsed seconds
Timing for main: time 2016-02-05_13:08:00 on domain   1:    6.02428 elapsed seconds
Timing for main: time 2016-02-05_13:08:13 on domain   3:     .24994 elapsed seconds
Timing for main: time 2016-02-05_13:08:26 on domain   3:     .26808 elapsed seconds
Timing for main: time 2016-02-05_13:08:40 on domain   3:     .20037 elapsed seconds
Timing for main: time 2016-02-05_13:08:20 on domain   4:     .23971 elapsed seconds
Timing for main: time 2016-02-05_13:08:40 on domain   4:     .23758 elapsed seconds
Timing for main: time 2016-02-05_13:08:40 on domain   2:    1.95662 elapsed seconds
Timing for main: time 2016-02-05_13:08:53 on domain   3:     .25729 elapsed seconds
Timing for main: time 2016-02-05_13:09:06 on domain   3:     .23081 elapsed seconds
Timing for main: time 2016-02-05_13:09:20 on domain   3:     .20381 elapsed seconds
Timing for main: time 2016-02-05_13:09:00 on domain   4:     .23931 elapsed seconds
Timing for main: time 2016-02-05_13:09:20 on domain   4:     .24034 elapsed seconds
Timing for main: time 2016-02-05_13:09:20 on domain   2:    1.92655 elapsed seconds
Timing for main: time 2016-02-05_13:09:33 on domain   3:     .21255 elapsed seconds
Timing for main: time 2016-02-05_13:09:46 on domain   3:     .20323 elapsed seconds
Timing for main: time 2016-02-05_13:10:00 on domain   3:     .20370 elapsed seconds
Timing for main: time 2016-02-05_13:09:40 on domain   4:     .24056 elapsed seconds
Timing for main: time 2016-02-05_13:10:00 on domain   4:     .24786 elapsed seconds
Timing for main: time 2016-02-05_13:10:00 on domain   2:    1.85345 elapsed seconds
Timing for main: time 2016-02-05_13:10:00 on domain   1:    6.11326 elapsed seconds
Timing for main: time 2016-02-05_13:10:13 on domain   3:     .21258 elapsed seconds
Timing for main: time 2016-02-05_13:10:26 on domain   3:     .20336 elapsed seconds
Timing for main: time 2016-02-05_13:10:40 on domain   3:     .20374 elapsed seconds
Timing for main: time 2016-02-05_13:10:20 on domain   4:     .23986 elapsed seconds
Timing for main: time 2016-02-05_13:10:40 on domain   4:     .23744 elapsed seconds
Timing for main: time 2016-02-05_13:10:40 on domain   2:    1.85652 elapsed seconds
Timing for main: time 2016-02-05_13:10:53 on domain   3:     .21243 elapsed seconds
Timing for main: time 2016-02-05_13:11:06 on domain   3:     .20345 elapsed seconds
Timing for main: time 2016-02-05_13:11:20 on domain   3:     .20369 elapsed seconds
Timing for main: time 2016-02-05_13:11:00 on domain   4:     .24083 elapsed seconds
Timing for main: time 2016-02-05_13:11:20 on domain   4:     .23730 elapsed seconds
Timing for main: time 2016-02-05_13:11:20 on domain   2:    1.84324 elapsed seconds
Timing for main: time 2016-02-05_13:11:33 on domain   3:     .22207 elapsed seconds
Timing for main: time 2016-02-05_13:11:46 on domain   3:     .20308 elapsed seconds
Timing for main: time 2016-02-05_13:12:00 on domain   3:     .20335 elapsed seconds
Timing for main: time 2016-02-05_13:11:40 on domain   4:     .23949 elapsed seconds
Timing for main: time 2016-02-05_13:12:00 on domain   4:     .23933 elapsed seconds
Timing for main: time 2016-02-05_13:12:00 on domain   2:    1.85183 elapsed seconds
Timing for main: time 2016-02-05_13:12:00 on domain   1:    5.93665 elapsed seconds
Timing for main: time 2016-02-05_13:12:13 on domain   3:     .21477 elapsed seconds
Timing for main: time 2016-02-05_13:12:26 on domain   3:     .20617 elapsed seconds
Timing for main: time 2016-02-05_13:12:40 on domain   3:     .20270 elapsed seconds
Timing for main: time 2016-02-05_13:12:20 on domain   4:     .23986 elapsed seconds
Timing for main: time 2016-02-05_13:12:40 on domain   4:     .23735 elapsed seconds
Timing for main: time 2016-02-05_13:12:40 on domain   2:    1.86726 elapsed seconds
Timing for main: time 2016-02-05_13:12:53 on domain   3:     .21276 elapsed seconds
Timing for main: time 2016-02-05_13:13:06 on domain   3:     .20348 elapsed seconds
Timing for main: time 2016-02-05_13:13:20 on domain   3:     .20564 elapsed seconds
Timing for main: time 2016-02-05_13:13:00 on domain   4:     .24229 elapsed seconds
Timing for main: time 2016-02-05_13:13:20 on domain   4:     .23799 elapsed seconds
Timing for main: time 2016-02-05_13:13:20 on domain   2:    1.84554 elapsed seconds
Timing for main: time 2016-02-05_13:13:33 on domain   3:     .21337 elapsed seconds
Timing for main: time 2016-02-05_13:13:46 on domain   3:     .20316 elapsed seconds
Timing for main: time 2016-02-05_13:14:00 on domain   3:     .20333 elapsed seconds
Timing for main: time 2016-02-05_13:13:40 on domain   4:     .23993 elapsed seconds
Timing for main: time 2016-02-05_13:14:00 on domain   4:     .23727 elapsed seconds
Timing for main: time 2016-02-05_13:14:00 on domain   2:    1.84099 elapsed seconds
Timing for main: time 2016-02-05_13:14:00 on domain   1:    5.95753 elapsed seconds
Timing for main: time 2016-02-05_13:14:13 on domain   3:     .21265 elapsed seconds
Timing for main: time 2016-02-05_13:14:26 on domain   3:     .20339 elapsed seconds
Timing for main: time 2016-02-05_13:14:40 on domain   3:     .20360 elapsed seconds
Timing for main: time 2016-02-05_13:14:20 on domain   4:     .23953 elapsed seconds
Timing for main: time 2016-02-05_13:14:40 on domain   4:     .23768 elapsed seconds
Timing for main: time 2016-02-05_13:14:40 on domain   2:    1.86961 elapsed seconds
Timing for main: time 2016-02-05_13:14:53 on domain   3:     .21254 elapsed seconds
Timing for main: time 2016-02-05_13:15:06 on domain   3:     .20677 elapsed seconds
Timing for main: time 2016-02-05_13:15:20 on domain   3:     .20353 elapsed seconds
Timing for main: time 2016-02-05_13:15:00 on domain   4:     .25117 elapsed seconds
Timing for main: time 2016-02-05_13:15:20 on domain   4:     .24065 elapsed seconds
Timing for main: time 2016-02-05_13:15:20 on domain   2:    1.85858 elapsed seconds
Timing for main: time 2016-02-05_13:15:33 on domain   3:     .21242 elapsed seconds
Timing for main: time 2016-02-05_13:15:46 on domain   3:     .20342 elapsed seconds
Timing for main: time 2016-02-05_13:16:00 on domain   3:     .20389 elapsed seconds
Timing for main: time 2016-02-05_13:15:40 on domain   4:     .23964 elapsed seconds
Timing for main: time 2016-02-05_13:16:00 on domain   4:     .29090 elapsed seconds
Timing for main: time 2016-02-05_13:16:00 on domain   2:    1.89596 elapsed seconds
Timing for main: time 2016-02-05_13:16:00 on domain   1:    6.00126 elapsed seconds
Timing for main: time 2016-02-05_13:16:13 on domain   3:     .21317 elapsed seconds
Timing for main: time 2016-02-05_13:16:26 on domain   3:     .20324 elapsed seconds
Timing for main: time 2016-02-05_13:16:40 on domain   3:     .21348 elapsed seconds
Timing for main: time 2016-02-05_13:16:20 on domain   4:     .23949 elapsed seconds
Timing for main: time 2016-02-05_13:16:40 on domain   4:     .23918 elapsed seconds
Timing for main: time 2016-02-05_13:16:40 on domain   2:    1.86947 elapsed seconds
Timing for main: time 2016-02-05_13:16:53 on domain   3:     .21276 elapsed seconds
Timing for main: time 2016-02-05_13:17:06 on domain   3:     .20360 elapsed seconds
Timing for main: time 2016-02-05_13:17:20 on domain   3:     .20502 elapsed seconds
Timing for main: time 2016-02-05_13:17:00 on domain   4:     .23978 elapsed seconds
Timing for main: time 2016-02-05_13:17:20 on domain   4:     .23832 elapsed seconds
Timing for main: time 2016-02-05_13:17:20 on domain   2:    1.84338 elapsed seconds
[...]
Timing for main: time 2016-02-05_17:36:00 on domain   2:    1.96173 elapsed seconds
Timing for main: time 2016-02-05_17:36:00 on domain   1:    6.14095 elapsed seconds
Timing for main: time 2016-02-05_17:36:13 on domain   3:     .21520 elapsed seconds
Timing for main: time 2016-02-05_17:36:26 on domain   3:     .20812 elapsed seconds
Timing for main: time 2016-02-05_17:36:40 on domain   3:     .20491 elapsed seconds
Timing for main: time 2016-02-05_17:36:20 on domain   4:     .23941 elapsed seconds
Timing for main: time 2016-02-05_17:36:40 on domain   4:     .23888 elapsed seconds
Timing for main: time 2016-02-05_17:36:40 on domain   2:    1.86523 elapsed seconds
Timing for main: time 2016-02-05_17:36:53 on domain   3:     .21413 elapsed seconds
Timing for main: time 2016-02-05_17:37:06 on domain   3:     .20538 elapsed seconds
Timing for main: time 2016-02-05_17:37:20 on domain   3:     .21490 elapsed seconds
Timing for main: time 2016-02-05_17:37:00 on domain   4:     .24098 elapsed seconds
Timing for main: time 2016-02-05_17:37:20 on domain   4:     .23733 elapsed seconds
Timing for main: time 2016-02-05_17:37:20 on domain   2:    1.85682 elapsed seconds
Timing for main: time 2016-02-05_17:37:33 on domain   3:     .21353 elapsed seconds
Timing for main: time 2016-02-05_17:37:46 on domain   3:     .20728 elapsed seconds
Timing for main: time 2016-02-05_17:38:00 on domain   3:     .20538 elapsed seconds
Timing for main: time 2016-02-05_17:37:40 on domain   4:     .23937 elapsed seconds
Timing for main: time 2016-02-05_17:38:00 on domain   4:     .23870 elapsed seconds
Timing for main: time 2016-02-05_17:38:00 on domain   2:    1.84837 elapsed seconds
Timing for main: time 2016-02-05_17:38:00 on domain   1:    5.95015 elapsed seconds
Timing for main: time 2016-02-05_17:38:13 on domain   3:     .21423 elapsed seconds
Timing for main: time 2016-02-05_17:38:26 on domain   3:     .20472 elapsed seconds
Timing for main: time 2016-02-05_17:38:40 on domain   3:     .20575 elapsed seconds
Timing for main: time 2016-02-05_17:38:20 on domain   4:     .23925 elapsed seconds
Timing for main: time 2016-02-05_17:38:40 on domain   4:     .23911 elapsed seconds
Timing for main: time 2016-02-05_17:38:40 on domain   2:    1.86317 elapsed seconds
Timing for main: time 2016-02-05_17:38:53 on domain   3:     .21456 elapsed seconds
Timing for main: time 2016-02-05_17:39:06 on domain   3:     .20524 elapsed seconds
Timing for main: time 2016-02-05_17:39:20 on domain   3:     .20478 elapsed seconds
Timing for main: time 2016-02-05_17:39:00 on domain   4:     .23956 elapsed seconds
Timing for main: time 2016-02-05_17:39:20 on domain   4:     .23900 elapsed seconds
Timing for main: time 2016-02-05_17:39:20 on domain   2:    1.84840 elapsed seconds
Timing for main: time 2016-02-05_17:39:33 on domain   3:     .23170 elapsed seconds
Timing for main: time 2016-02-05_17:39:46 on domain   3:     .20049 elapsed seconds
Timing for main: time 2016-02-05_17:40:00 on domain   3:     .20537 elapsed seconds
Timing for main: time 2016-02-05_17:39:40 on domain   4:     .23964 elapsed seconds
Timing for main: time 2016-02-05_17:40:00 on domain   4:     .25072 elapsed seconds
Timing for main: time 2016-02-05_17:40:00 on domain   2:    1.87162 elapsed seconds
Timing for main: time 2016-02-05_17:40:00 on domain   1:    5.96244 elapsed seconds
Timing for main: time 2016-02-05_17:40:13 on domain   3:     .21380 elapsed seconds
Timing for main: time 2016-02-05_17:40:26 on domain   3:     .20583 elapsed seconds
Timing for main: time 2016-02-05_17:40:40 on domain   3:     .20507 elapsed seconds
Timing for main: time 2016-02-05_17:40:20 on domain   4:     .23925 elapsed seconds
Timing for main: time 2016-02-05_17:40:40 on domain   4:     .23875 elapsed seconds
Timing for main: time 2016-02-05_17:40:40 on domain   2:    1.86189 elapsed seconds
Timing for main: time 2016-02-05_17:40:53 on domain   3:     .28767 elapsed seconds
Timing for main: time 2016-02-05_17:41:06 on domain   3:     .19973 elapsed seconds
Timing for main: time 2016-02-05_17:41:20 on domain   3:     .20571 elapsed seconds
Timing for main: time 2016-02-05_17:41:00 on domain   4:     .23928 elapsed seconds
Timing for main: time 2016-02-05_17:41:20 on domain   4:     .23941 elapsed seconds
Timing for main: time 2016-02-05_17:41:20 on domain   2:    1.92663 elapsed seconds
Timing for main: time 2016-02-05_17:41:33 on domain   3:     .21498 elapsed seconds
Timing for main: time 2016-02-05_17:41:46 on domain   3:     .20798 elapsed seconds
Timing for main: time 2016-02-05_17:42:00 on domain   3:     .20556 elapsed seconds
Timing for main: time 2016-02-05_17:41:40 on domain   4:     .24188 elapsed seconds
Timing for main: time 2016-02-05_17:42:00 on domain   4:     .23908 elapsed seconds
Timing for main: time 2016-02-05_17:42:00 on domain   2:    1.85457 elapsed seconds
Timing for main: time 2016-02-05_17:42:00 on domain   1:    6.03181 elapsed seconds
Timing for main: time 2016-02-05_17:42:13 on domain   3:     .21386 elapsed seconds
Timing for main: time 2016-02-05_17:42:26 on domain   3:     .21503 elapsed seconds
Timing for main: time 2016-02-05_17:42:40 on domain   3:     .20537 elapsed seconds
Timing for main: time 2016-02-05_17:42:20 on domain   4:     .23921 elapsed seconds
Timing for main: time 2016-02-05_17:42:40 on domain   4:     .23867 elapsed seconds
Timing for main: time 2016-02-05_17:42:40 on domain   2:    1.90606 elapsed seconds
Timing for main: time 2016-02-05_17:42:53 on domain   3:     .21413 elapsed seconds
Timing for main: time 2016-02-05_17:43:06 on domain   3:     .20548 elapsed seconds
Timing for main: time 2016-02-05_17:43:20 on domain   3:     .20490 elapsed seconds
Timing for main: time 2016-02-05_17:43:00 on domain   4:     .23910 elapsed seconds
Timing for main: time 2016-02-05_17:43:20 on domain   4:     .24018 elapsed seconds
Timing for main: time 2016-02-05_17:43:20 on domain   2:    1.85055 elapsed seconds
Timing for main: time 2016-02-05_17:43:33 on domain   3:     .21445 elapsed seconds
Timing for main: time 2016-02-05_17:43:46 on domain   3:     .20533 elapsed seconds
Timing for main: time 2016-02-05_17:44:00 on domain   3:     .20542 elapsed seconds
Timing for main: time 2016-02-05_17:43:40 on domain   4:     .23928 elapsed seconds
Timing for main: time 2016-02-05_17:44:00 on domain   4:     .23879 elapsed seconds
Timing for main: time 2016-02-05_17:44:00 on domain   2:    1.84739 elapsed seconds
Timing for main: time 2016-02-05_17:44:00 on domain   1:    5.98310 elapsed seconds
Timing for main: time 2016-02-05_17:44:13 on domain   3:     .21406 elapsed seconds
Timing for main: time 2016-02-05_17:44:26 on domain   3:     .20531 elapsed seconds
Timing for main: time 2016-02-05_17:44:40 on domain   3:     .20527 elapsed seconds
Timing for main: time 2016-02-05_17:44:20 on domain   4:     .23925 elapsed seconds
Timing for main: time 2016-02-05_17:44:40 on domain   4:     .23920 elapsed seconds
Timing for main: time 2016-02-05_17:44:40 on domain   2:    1.86175 elapsed seconds
Timing for main: time 2016-02-05_17:44:53 on domain   3:     .21409 elapsed seconds
Timing for main: time 2016-02-05_17:45:06 on domain   3:     .25752 elapsed seconds
Timing for main: time 2016-02-05_17:45:20 on domain   3:     .24697 elapsed seconds
Timing for main: time 2016-02-05_17:45:00 on domain   4:     .24957 elapsed seconds
Timing for main: time 2016-02-05_17:45:20 on domain   4:     .23922 elapsed seconds
Timing for main: time 2016-02-05_17:45:20 on domain   2:    1.95241 elapsed seconds
Timing for main: time 2016-02-05_17:45:33 on domain   3:     .21477 elapsed seconds
Timing for main: time 2016-02-05_17:45:46 on domain   3:     .20986 elapsed seconds
Timing for main: time 2016-02-05_17:46:00 on domain   3:     .20530 elapsed seconds
Timing for main: time 2016-02-05_17:45:40 on domain   4:     .24217 elapsed seconds
Timing for main: time 2016-02-05_17:46:00 on domain   4:     .23871 elapsed seconds
Timing for main: time 2016-02-05_17:46:00 on domain   2:    1.85519 elapsed seconds
Timing for main: time 2016-02-05_17:46:00 on domain   1:    6.04842 elapsed seconds
Timing for main: time 2016-02-05_17:46:13 on domain   3:     .21467 elapsed seconds
Timing for main: time 2016-02-05_17:46:26 on domain   3:     .20884 elapsed seconds
Timing for main: time 2016-02-05_17:46:40 on domain   3:     .20531 elapsed seconds
Timing for main: time 2016-02-05_17:46:20 on domain   4:     .23947 elapsed seconds
Timing for main: time 2016-02-05_17:46:40 on domain   4:     .23899 elapsed seconds
Timing for main: time 2016-02-05_17:46:40 on domain   2:    1.87759 elapsed seconds
Timing for main: time 2016-02-05_17:46:53 on domain   3:     .21430 elapsed seconds
Timing for main: time 2016-02-05_17:47:06 on domain   3:     .20511 elapsed seconds
Timing for main: time 2016-02-05_17:47:20 on domain   3:     .20530 elapsed seconds
Timing for main: time 2016-02-05_17:47:00 on domain   4:     .23946 elapsed seconds
Timing for main: time 2016-02-05_17:47:20 on domain   4:     .24169 elapsed seconds
Timing for main: time 2016-02-05_17:47:20 on domain   2:    1.85032 elapsed seconds
Timing for main: time 2016-02-05_17:47:33 on domain   3:     .22296 elapsed seconds
Timing for main: time 2016-02-05_17:47:46 on domain   3:     .20605 elapsed seconds
Timing for main: time 2016-02-05_17:48:00 on domain   3:     .20536 elapsed seconds
Timing for main: time 2016-02-05_17:47:40 on domain   4:     .23920 elapsed seconds
Timing for main: time 2016-02-05_17:48:00 on domain   4:     .23884 elapsed seconds
Timing for main: time 2016-02-05_17:48:00 on domain   2:    1.85673 elapsed seconds
Timing for main: time 2016-02-05_17:48:00 on domain   1:    5.97318 elapsed seconds
Timing for main: time 2016-02-05_17:48:13 on domain   3:     .21426 elapsed seconds
Timing for main: time 2016-02-05_17:48:26 on domain   3:     .20521 elapsed seconds
Timing for main: time 2016-02-05_17:48:40 on domain   3:     .20532 elapsed seconds
Timing for main: time 2016-02-05_17:48:20 on domain   4:     .23968 elapsed seconds
Timing for main: time 2016-02-05_17:48:40 on domain   4:     .23849 elapsed seconds
Timing for main: time 2016-02-05_17:48:40 on domain   2:    1.86534 elapsed seconds
Timing for main: time 2016-02-05_17:48:53 on domain   3:     .21465 elapsed seconds
Timing for main: time 2016-02-05_17:49:06 on domain   3:     .20534 elapsed seconds
Timing for main: time 2016-02-05_17:49:20 on domain   3:     .20471 elapsed seconds
Timing for main: time 2016-02-05_17:49:00 on domain   4:     .24020 elapsed seconds
Timing for main: time 2016-02-05_17:49:20 on domain   4:     .23880 elapsed seconds
Timing for main: time 2016-02-05_17:49:20 on domain   2:    1.84830 elapsed seconds
Timing for main: time 2016-02-05_17:49:33 on domain   3:     .21422 elapsed seconds
Timing for main: time 2016-02-05_17:49:46 on domain   3:     .20578 elapsed seconds
Timing for main: time 2016-02-05_17:50:00 on domain   3:     .20618 elapsed seconds
Timing for main: time 2016-02-05_17:49:40 on domain   4:     .23948 elapsed seconds
Timing for main: time 2016-02-05_17:50:00 on domain   4:     .25097 elapsed seconds
Timing for main: time 2016-02-05_17:50:00 on domain   2:    1.86069 elapsed seconds
Timing for main: time 2016-02-05_17:50:00 on domain   1:    5.95324 elapsed seconds
Timing for main: time 2016-02-05_17:50:13 on domain   3:     .21429 elapsed seconds
Timing for main: time 2016-02-05_17:50:26 on domain   3:     .20462 elapsed seconds
Timing for main: time 2016-02-05_17:50:40 on domain   3:     .20558 elapsed seconds
Timing for main: time 2016-02-05_17:50:20 on domain   4:     .23982 elapsed seconds
Timing for main: time 2016-02-05_17:50:40 on domain   4:     .23985 elapsed seconds
Timing for main: time 2016-02-05_17:50:40 on domain   2:    1.86272 elapsed seconds
Timing for main: time 2016-02-05_17:50:53 on domain   3:     .21434 elapsed seconds
Timing for main: time 2016-02-05_17:51:06 on domain   3:     .20519 elapsed seconds
Timing for main: time 2016-02-05_17:51:20 on domain   3:     .20554 elapsed seconds
Timing for main: time 2016-02-05_17:51:00 on domain   4:     .23923 elapsed seconds
Timing for main: time 2016-02-05_17:51:20 on domain   4:     .23908 elapsed seconds
Timing for main: time 2016-02-05_17:51:20 on domain   2:    1.84848 elapsed seconds
Timing for main: time 2016-02-05_17:51:33 on domain   3:     .21494 elapsed seconds
Timing for main: time 2016-02-05_17:51:46 on domain   3:     .20507 elapsed seconds
Timing for main: time 2016-02-05_17:52:00 on domain   3:     .20537 elapsed seconds
Timing for main: time 2016-02-05_17:51:40 on domain   4:     .23913 elapsed seconds
Timing for main: time 2016-02-05_17:52:00 on domain   4:     .23880 elapsed seconds
Timing for main: time 2016-02-05_17:52:00 on domain   2:    1.86074 elapsed seconds
Timing for main: time 2016-02-05_17:52:00 on domain   1:    5.95049 elapsed seconds
Timing for main: time 2016-02-05_17:52:13 on domain   3:     .21465 elapsed seconds
Timing for main: time 2016-02-05_17:52:26 on domain   3:     .20469 elapsed seconds
Timing for main: time 2016-02-05_17:52:40 on domain   3:     .21465 elapsed seconds
Timing for main: time 2016-02-05_17:52:20 on domain   4:     .23916 elapsed seconds
Timing for main: time 2016-02-05_17:52:40 on domain   4:     .23918 elapsed seconds
Timing for main: time 2016-02-05_17:52:40 on domain   2:    1.87167 elapsed seconds
Timing for main: time 2016-02-05_17:52:53 on domain   3:     .21414 elapsed seconds
Timing for main: time 2016-02-05_17:53:06 on domain   3:     .20566 elapsed seconds
Timing for main: time 2016-02-05_17:53:20 on domain   3:     .20528 elapsed seconds
Timing for main: time 2016-02-05_17:53:00 on domain   4:     .23937 elapsed seconds
Timing for main: time 2016-02-05_17:53:20 on domain   4:     .23984 elapsed seconds
Timing for main: time 2016-02-05_17:53:20 on domain   2:    1.84891 elapsed seconds
Timing for main: time 2016-02-05_17:53:33 on domain   3:     .21576 elapsed seconds
Timing for main: time 2016-02-05_17:53:46 on domain   3:     .20395 elapsed seconds
Timing for main: time 2016-02-05_17:54:00 on domain   3:     .20622 elapsed seconds
Timing for main: time 2016-02-05_17:53:40 on domain   4:     .23895 elapsed seconds
Timing for main: time 2016-02-05_17:54:00 on domain   4:     .23849 elapsed seconds
Timing for main: time 2016-02-05_17:54:00 on domain   2:    1.84897 elapsed seconds
Timing for main: time 2016-02-05_17:54:00 on domain   1:    5.95826 elapsed seconds
Timing for main: time 2016-02-05_17:54:13 on domain   3:     .21464 elapsed seconds
Timing for main: time 2016-02-05_17:54:26 on domain   3:     .20486 elapsed seconds
Timing for main: time 2016-02-05_17:54:40 on domain   3:     .20526 elapsed seconds
Timing for main: time 2016-02-05_17:54:20 on domain   4:     .24121 elapsed seconds
Timing for main: time 2016-02-05_17:54:40 on domain   4:     .23918 elapsed seconds
Timing for main: time 2016-02-05_17:54:40 on domain   2:    1.86450 elapsed seconds
Timing for main: time 2016-02-05_17:54:53 on domain   3:     .21415 elapsed seconds
Timing for main: time 2016-02-05_17:55:06 on domain   3:     .20495 elapsed seconds
Timing for main: time 2016-02-05_17:55:20 on domain   3:     .20509 elapsed seconds
Timing for main: time 2016-02-05_17:55:00 on domain   4:     .25005 elapsed seconds
Timing for main: time 2016-02-05_17:55:20 on domain   4:     .23847 elapsed seconds
Timing for main: time 2016-02-05_17:55:20 on domain   2:    1.85752 elapsed seconds
Timing for main: time 2016-02-05_17:55:33 on domain   3:     .21566 elapsed seconds
Timing for main: time 2016-02-05_17:55:46 on domain   3:     .20571 elapsed seconds
Timing for main: time 2016-02-05_17:56:00 on domain   3:     .20967 elapsed seconds
Timing for main: time 2016-02-05_17:55:40 on domain   4:     .23904 elapsed seconds
Timing for main: time 2016-02-05_17:56:00 on domain   4:     .24202 elapsed seconds
Timing for main: time 2016-02-05_17:56:00 on domain   2:    1.85725 elapsed seconds
Timing for main: time 2016-02-05_17:56:00 on domain   1:    5.95816 elapsed seconds
Timing for main: time 2016-02-05_17:56:13 on domain   3:     .21419 elapsed seconds
Timing for main: time 2016-02-05_17:56:26 on domain   3:     .20596 elapsed seconds
Timing for main: time 2016-02-05_17:56:40 on domain   3:     .21015 elapsed seconds
Timing for main: time 2016-02-05_17:56:20 on domain   4:     .23935 elapsed seconds
Timing for main: time 2016-02-05_17:56:40 on domain   4:     .24002 elapsed seconds
Timing for main: time 2016-02-05_17:56:40 on domain   2:    1.86824 elapsed seconds
Timing for main: time 2016-02-05_17:56:53 on domain   3:     .21461 elapsed seconds
Timing for main: time 2016-02-05_17:57:06 on domain   3:     .20643 elapsed seconds
Timing for main: time 2016-02-05_17:57:20 on domain   3:     .20337 elapsed seconds
Timing for main: time 2016-02-05_17:57:00 on domain   4:     .23913 elapsed seconds
Timing for main: time 2016-02-05_17:57:20 on domain   4:     .23889 elapsed seconds
Timing for main: time 2016-02-05_17:57:20 on domain   2:    1.85803 elapsed seconds
Timing for main: time 2016-02-05_17:57:33 on domain   3:     .21624 elapsed seconds
Timing for main: time 2016-02-05_17:57:46 on domain   3:     .21500 elapsed seconds
Timing for main: time 2016-02-05_17:58:00 on domain   3:     .20728 elapsed seconds
Timing for main: time 2016-02-05_17:57:40 on domain   4:     .23906 elapsed seconds
Timing for main: time 2016-02-05_17:58:00 on domain   4:     .23841 elapsed seconds
Timing for main: time 2016-02-05_17:58:00 on domain   2:    1.86244 elapsed seconds
Timing for main: time 2016-02-05_17:58:00 on domain   1:    5.96732 elapsed seconds
  photolysis_driver: called for domain  1
Timing for main: time 2016-02-05_17:58:13 on domain   3:     .21476 elapsed seconds
Timing for main: time 2016-02-05_17:58:26 on domain   3:     .20653 elapsed seconds
Timing for main: time 2016-02-05_17:58:40 on domain   3:     .20486 elapsed seconds
Timing for main: time 2016-02-05_17:58:20 on domain   4:     .23876 elapsed seconds
Timing for main: time 2016-02-05_17:58:40 on domain   4:     .24392 elapsed seconds
Timing for main: time 2016-02-05_17:58:40 on domain   2:    1.87035 elapsed seconds
Timing for main: time 2016-02-05_17:58:53 on domain   3:     .21426 elapsed seconds
Timing for main: time 2016-02-05_17:59:06 on domain   3:     .20484 elapsed seconds
Timing for main: time 2016-02-05_17:59:20 on domain   3:     .20510 elapsed seconds
Timing for main: time 2016-02-05_17:59:00 on domain   4:     .23882 elapsed seconds
Timing for main: time 2016-02-05_17:59:20 on domain   4:     .24023 elapsed seconds
Timing for main: time 2016-02-05_17:59:20 on domain   2:    1.84860 elapsed seconds
  photolysis_driver: called for domain  2
Timing for main: time 2016-02-05_17:59:33 on domain   3:     .21435 elapsed seconds
Timing for main: time 2016-02-05_17:59:46 on domain   3:     .20500 elapsed seconds
  photolysis_driver: called for domain  3
Timing for main: time 2016-02-05_18:00:00 on domain   3:    1.24695 elapsed seconds
Timing for Writing wrfout_d03_2016-02-05_18:00:00 for domain        3:    1.69350 elapsed seconds
Timing for main: time 2016-02-05_17:59:40 on domain   4:     .28498 elapsed seconds
  photolysis_driver: called for domain  4
Timing for main: time 2016-02-05_18:00:00 on domain   4:    1.40386 elapsed seconds
Timing for Writing wrfout_d04_2016-02-05_18:00:00 for domain        4:    1.90948 elapsed seconds
Timing for main: time 2016-02-05_18:00:00 on domain   2:    8.90390 elapsed seconds
Timing for Writing wrfout_d02_2016-02-05_18:00:00 for domain        2:    2.97457 elapsed seconds
Timing for main: time 2016-02-05_18:00:00 on domain   1:   16.63470 elapsed seconds
Timing for Writing wrfout_d01_2016-02-05_18:00:00 for domain        1:    2.46818 elapsed seconds
 d01 2016-02-05_18:00:00 wrf: SUCCESS COMPLETE WRF
