taskid: 0 hostname: p10a51.pbm.ihost.com
  Ntasks in X  20 , ntasks in Y  20
 Setting blank km_opt entries to domain #1 values.
  --> The km_opt entry in the namelist.input is now max_domains.
 Setting blank diff_opt entries to domain #1 values.
  --> The diff_opt entry in the namelist.input is now max_domains.
 --- WARNING: traj_opt is zero, but num_traj is not zero; setting num_traj to zero.
 --- NOTE: hypsometric_opt is 2, setting adjust_heights = F
 --- NOTE: sst_update is 0, setting io_form_auxinput4 = 0 and auxinput4_interval = 0 for all domains
 --- NOTE: sst_update is 0, setting io_form_auxinput4 = 0 and auxinput4_interval = 0 for all domains
 --- NOTE: sst_update is 0, setting io_form_auxinput4 = 0 and auxinput4_interval = 0 for all domains
 --- NOTE: sst_update is 0, setting io_form_auxinput4 = 0 and auxinput4_interval = 0 for all domains
 --- NOTE: grid_fdda is 0 for domain      1, setting gfdda interval and ending time to 0 for that domain.
 --- NOTE: both grid_sfdda and pxlsm_soil_nudge are 0 for domain      1, setting sgfdda interval and ending time to 0 for that domain.
 --- NOTE: obs_nudge_opt is 0 for domain      1, setting obs nudging interval and ending time to 0 for that domain.
 --- NOTE: grid_fdda is 0 for domain      2, setting gfdda interval and ending time to 0 for that domain.
 --- NOTE: both grid_sfdda and pxlsm_soil_nudge are 0 for domain      2, setting sgfdda interval and ending time to 0 for that domain.
 --- NOTE: obs_nudge_opt is 0 for domain      2, setting obs nudging interval and ending time to 0 for that domain.
 --- NOTE: grid_fdda is 0 for domain      3, setting gfdda interval and ending time to 0 for that domain.
 --- NOTE: both grid_sfdda and pxlsm_soil_nudge are 0 for domain      3, setting sgfdda interval and ending time to 0 for that domain.
 --- NOTE: obs_nudge_opt is 0 for domain      3, setting obs nudging interval and ending time to 0 for that domain.
 --- NOTE: grid_fdda is 0 for domain      4, setting gfdda interval and ending time to 0 for that domain.
 --- NOTE: both grid_sfdda and pxlsm_soil_nudge are 0 for domain      4, setting sgfdda interval and ending time to 0 for that domain.
 --- NOTE: obs_nudge_opt is 0 for domain      4, setting obs nudging interval and ending time to 0 for that domain.
 bl_pbl_physics /= 4, implies mfshconv must be 0, resetting
 --- NOTE: num_soil_layers has been set to      4
 WRF V3.6 MODEL
  *************************************
  Parent domain
  ids,ide,jds,jde  1 271 1 181
  ims,ime,jms,jme  -4 21 -4 16
  ips,ipe,jps,jpe  1 14 1 9
  *************************************
 DYNAMICS OPTION: Eulerian Mass Coordinate
    alloc_space_field: domain  1 ,  57211468  bytes allocated
   med_initialdata_input: calling input_input
Timing for processing wrfinput file (stream 0) for domain        1:    5.09379 elapsed seconds
 INPUT LandUse = "USGS"
  LANDUSE TYPE = "USGS" FOUND 33  CATEGORIES 2  SEASONS WATER CATEGORY =  16  SNOW CATEGORY =  24
 INITIALIZE THREE Noah LSM RELATED TABLES
  LANDUSE TYPE = USGS FOUND 27  CATEGORIES
  INPUT SOIL TEXTURE CLASSIFICATION = STAS
  SOIL TEXTURE CLASSIFICATION = STAS FOUND 19  CATEGORIES
 *********************************************************************
 *             PROGRAM:WRF/CHEM V3.6 MODEL
 *                                                                   *
 *    PLEASE REPORT ANY BUGS TO WRF/CHEM HELP at                     *
 *                                                                   *
 *              wrfchemhelp.gsd@noaa.gov                             *
 *                                                                   *
 *********************************************************************
 WARNING: dust option 1 currently works only with the GOCART aerosol option.
 WARNING: sea salt option 1 currently works only with the GOCART aerosol option.
  *************************************
  Nesting domain
  ids,ide,jds,jde  1 361 1 253
  ims,ime,jms,jme  -4 30 -4 24
  ips,ipe,jps,jpe  1 18 1 13
  INTERMEDIATE domain
  ids,ide,jds,jde  74 199 47 136
  ims,ime,jms,jme  69 91 42 62
  ips,ipe,jps,jpe  72 81 45 52
  *************************************
 d01 2016-02-05_12:00:00  alloc_space_field: domain  2 ,  102743272  bytes allocated
 d01 2016-02-05_12:00:00  alloc_space_field: domain  2 ,  6083868  bytes allocated
 d01 2016-02-05_12:00:00 *** Initializing nest domain # 2 from an input file. ***
 d01 2016-02-05_12:00:00 med_initialdata_input: calling input_input
Timing for processing wrfinput file (stream 0) for domain        2:    7.95046 elapsed seconds
 INPUT LandUse = "USGS"
  LANDUSE TYPE = "USGS" FOUND 33  CATEGORIES 2  SEASONS WATER CATEGORY =  16  SNOW CATEGORY =  24
 INITIALIZE THREE Noah LSM RELATED TABLES
  LANDUSE TYPE = USGS FOUND 27  CATEGORIES
  INPUT SOIL TEXTURE CLASSIFICATION = STAS
  SOIL TEXTURE CLASSIFICATION = STAS FOUND 19  CATEGORIES
 *********************************************************************
 *             PROGRAM:WRF/CHEM V3.6 MODEL
 *                                                                   *
 *    PLEASE REPORT ANY BUGS TO WRF/CHEM HELP at                     *
 *                                                                   *
 *              wrfchemhelp.gsd@noaa.gov                             *
 *                                                                   *
 *********************************************************************
 WARNING: dust option 1 currently works only with the GOCART aerosol option.
 WARNING: sea salt option 1 currently works only with the GOCART aerosol option.
 INPUT LandUse = "USGS"
  LANDUSE TYPE = "USGS" FOUND 33  CATEGORIES 2  SEASONS WATER CATEGORY =  16  SNOW CATEGORY =  24
 INITIALIZE THREE Noah LSM RELATED TABLES
  LANDUSE TYPE = USGS FOUND 27  CATEGORIES
  INPUT SOIL TEXTURE CLASSIFICATION = STAS
  SOIL TEXTURE CLASSIFICATION = STAS FOUND 19  CATEGORIES
 *********************************************************************
 *             PROGRAM:WRF/CHEM V3.6 MODEL
 *                                                                   *
 *    PLEASE REPORT ANY BUGS TO WRF/CHEM HELP at                     *
 *                                                                   *
 *              wrfchemhelp.gsd@noaa.gov                             *
 *                                                                   *
 *********************************************************************
 WARNING: dust option 1 currently works only with the GOCART aerosol option.
 WARNING: sea salt option 1 currently works only with the GOCART aerosol option.
 INPUT LandUse = "USGS"
  LANDUSE TYPE = "USGS" FOUND 33  CATEGORIES 2  SEASONS WATER CATEGORY =  16  SNOW CATEGORY =  24
 INITIALIZE THREE Noah LSM RELATED TABLES
  LANDUSE TYPE = USGS FOUND 27  CATEGORIES
  INPUT SOIL TEXTURE CLASSIFICATION = STAS
  SOIL TEXTURE CLASSIFICATION = STAS FOUND 19  CATEGORIES
 *********************************************************************
 *             PROGRAM:WRF/CHEM V3.6 MODEL
 *                                                                   *
 *    PLEASE REPORT ANY BUGS TO WRF/CHEM HELP at                     *
 *                                                                   *
 *              wrfchemhelp.gsd@noaa.gov                             *
 *                                                                   *
 *********************************************************************
 WARNING: dust option 1 currently works only with the GOCART aerosol option.
 WARNING: sea salt option 1 currently works only with the GOCART aerosol option.
Timing for Writing wrfout_d01_2016-02-05_12:00:00 for domain        1:    3.34550 elapsed seconds
  mediation_integrate: med_read_wrf_chem_emissions: Open file wrfchemi_12z_d01
  HOURLY EMISSIONS UPDATE TIME         .0        .0
 mediation_integrate: med_read_wrf_chem_emissions: Read emissions for time 2016-02-05_12:00:00
 **WARNING** Time in input file not being checked **WARNING**
Timing for processing lateral boundary for domain        1:    4.28162 elapsed seconds
  Tile Strategy is not specified. Assuming 1D-Y
 WRF TILE   1 IS      1 IE     14 JS      1 JE      9
 WRF NUMBER OF TILES =   1
  photolysis_driver: called for domain  1
  *************************************
  Nesting domain
  ids,ide,jds,jde  1 307 1 241
  ims,ime,jms,jme  -4 27 -4 24
  ips,ipe,jps,jpe  1 16 1 12
  INTERMEDIATE domain
  ids,ide,jds,jde  124 231 35 120
  ims,ime,jms,jme  119 140 30 50
  ips,ipe,jps,jpe  122 130 33 40
  *************************************
 d02 2016-02-05_12:00:00  alloc_space_field: domain  3 ,  94276368  bytes allocated
 d02 2016-02-05_12:00:00  alloc_space_field: domain  3 ,  5819352  bytes allocated
 d02 2016-02-05_12:00:00 *** Initializing nest domain # 3 from an input file. ***
 d02 2016-02-05_12:00:00 med_initialdata_input: calling input_input
Timing for processing wrfinput file (stream 0) for domain        3:    6.51386 elapsed seconds
 INPUT LandUse = "USGS"
  LANDUSE TYPE = "USGS" FOUND 33  CATEGORIES 2  SEASONS WATER CATEGORY =  16  SNOW CATEGORY =  24
 INITIALIZE THREE Noah LSM RELATED TABLES
  LANDUSE TYPE = USGS FOUND 27  CATEGORIES
  INPUT SOIL TEXTURE CLASSIFICATION = STAS
  SOIL TEXTURE CLASSIFICATION = STAS FOUND 19  CATEGORIES
 *********************************************************************
 *             PROGRAM:WRF/CHEM V3.6 MODEL
 *                                                                   *
 *    PLEASE REPORT ANY BUGS TO WRF/CHEM HELP at                     *
 *                                                                   *
 *              wrfchemhelp.gsd@noaa.gov                             *
 *                                                                   *
 *********************************************************************
 WARNING: dust option 1 currently works only with the GOCART aerosol option.
 WARNING: sea salt option 1 currently works only with the GOCART aerosol option.
 INPUT LandUse = "USGS"
  LANDUSE TYPE = "USGS" FOUND 33  CATEGORIES 2  SEASONS WATER CATEGORY =  16  SNOW CATEGORY =  24
 INITIALIZE THREE Noah LSM RELATED TABLES
  LANDUSE TYPE = USGS FOUND 27  CATEGORIES
  INPUT SOIL TEXTURE CLASSIFICATION = STAS
  SOIL TEXTURE CLASSIFICATION = STAS FOUND 19  CATEGORIES
 *********************************************************************
 *             PROGRAM:WRF/CHEM V3.6 MODEL
 *                                                                   *
 *    PLEASE REPORT ANY BUGS TO WRF/CHEM HELP at                     *
 *                                                                   *
 *              wrfchemhelp.gsd@noaa.gov                             *
 *                                                                   *
 *********************************************************************
 WARNING: dust option 1 currently works only with the GOCART aerosol option.
 WARNING: sea salt option 1 currently works only with the GOCART aerosol option.
 INPUT LandUse = "USGS"
  LANDUSE TYPE = "USGS" FOUND 33  CATEGORIES 2  SEASONS WATER CATEGORY =  16  SNOW CATEGORY =  24
 INITIALIZE THREE Noah LSM RELATED TABLES
  LANDUSE TYPE = USGS FOUND 27  CATEGORIES
  INPUT SOIL TEXTURE CLASSIFICATION = STAS
  SOIL TEXTURE CLASSIFICATION = STAS FOUND 19  CATEGORIES
 *********************************************************************
 *             PROGRAM:WRF/CHEM V3.6 MODEL
 *                                                                   *
 *    PLEASE REPORT ANY BUGS TO WRF/CHEM HELP at                     *
 *                                                                   *
 *              wrfchemhelp.gsd@noaa.gov                             *
 *                                                                   *
 *********************************************************************
 WARNING: dust option 1 currently works only with the GOCART aerosol option.
 WARNING: sea salt option 1 currently works only with the GOCART aerosol option.
  *************************************
  Nesting domain
  ids,ide,jds,jde  1 217 1 388
  ims,ime,jms,jme  -4 21 -4 30
  ips,ipe,jps,jpe  1 11 1 20
  INTERMEDIATE domain
  ids,ide,jds,jde  225 302 83 217
  ims,ime,jms,jme  220 240 78 101
  ips,ipe,jps,jpe  223 230 81 91
  *************************************
 d02 2016-02-05_12:00:00  alloc_space_field: domain  4 ,  92704520  bytes allocated
 d02 2016-02-05_12:00:00 *** Initializing nest domain # 4 from an input file. ***
 d02 2016-02-05_12:00:00 med_initialdata_input: calling input_input
Timing for processing wrfinput file (stream 0) for domain        4:    8.06608 elapsed seconds
 INPUT LandUse = "USGS"
  LANDUSE TYPE = "USGS" FOUND 33  CATEGORIES 2  SEASONS WATER CATEGORY =  16  SNOW CATEGORY =  24
 INITIALIZE THREE Noah LSM RELATED TABLES
  LANDUSE TYPE = USGS FOUND 27  CATEGORIES
  INPUT SOIL TEXTURE CLASSIFICATION = STAS
  SOIL TEXTURE CLASSIFICATION = STAS FOUND 19  CATEGORIES
 *********************************************************************
 *             PROGRAM:WRF/CHEM V3.6 MODEL
 *                                                                   *
 *    PLEASE REPORT ANY BUGS TO WRF/CHEM HELP at                     *
 *                                                                   *
 *              wrfchemhelp.gsd@noaa.gov                             *
 *                                                                   *
 *********************************************************************
 WARNING: dust option 1 currently works only with the GOCART aerosol option.
 WARNING: sea salt option 1 currently works only with the GOCART aerosol option.
 INPUT LandUse = "USGS"
  LANDUSE TYPE = "USGS" FOUND 33  CATEGORIES 2  SEASONS WATER CATEGORY =  16  SNOW CATEGORY =  24
 INITIALIZE THREE Noah LSM RELATED TABLES
  LANDUSE TYPE = USGS FOUND 27  CATEGORIES
  INPUT SOIL TEXTURE CLASSIFICATION = STAS
  SOIL TEXTURE CLASSIFICATION = STAS FOUND 19  CATEGORIES
 *********************************************************************
 *             PROGRAM:WRF/CHEM V3.6 MODEL
 *                                                                   *
 *    PLEASE REPORT ANY BUGS TO WRF/CHEM HELP at                     *
 *                                                                   *
 *              wrfchemhelp.gsd@noaa.gov                             *
 *                                                                   *
 *********************************************************************
 WARNING: dust option 1 currently works only with the GOCART aerosol option.
 WARNING: sea salt option 1 currently works only with the GOCART aerosol option.
 INPUT LandUse = "USGS"
  LANDUSE TYPE = "USGS" FOUND 33  CATEGORIES 2  SEASONS WATER CATEGORY =  16  SNOW CATEGORY =  24
 INITIALIZE THREE Noah LSM RELATED TABLES
  LANDUSE TYPE = USGS FOUND 27  CATEGORIES
  INPUT SOIL TEXTURE CLASSIFICATION = STAS
  SOIL TEXTURE CLASSIFICATION = STAS FOUND 19  CATEGORIES
 *********************************************************************
 *             PROGRAM:WRF/CHEM V3.6 MODEL
 *                                                                   *
 *    PLEASE REPORT ANY BUGS TO WRF/CHEM HELP at                     *
 *                                                                   *
 *              wrfchemhelp.gsd@noaa.gov                             *
 *                                                                   *
 *********************************************************************
 WARNING: dust option 1 currently works only with the GOCART aerosol option.
 WARNING: sea salt option 1 currently works only with the GOCART aerosol option.
Timing for Writing wrfout_d02_2016-02-05_12:00:00 for domain        2:    4.04183 elapsed seconds
  mediation_integrate: med_read_wrf_chem_emissions: Open file wrfchemi_12z_d02
  HOURLY EMISSIONS UPDATE TIME         .0        .0
 mediation_integrate: med_read_wrf_chem_emissions: Read emissions for time 2016-02-05_12:00:00
 **WARNING** Time in input file not being checked **WARNING**
  Tile Strategy is not specified. Assuming 1D-Y
 WRF TILE   1 IS      1 IE     18 JS      1 JE     13
 WRF NUMBER OF TILES =   1
  photolysis_driver: called for domain  2
Timing for Writing wrfout_d03_2016-02-05_12:00:00 for domain        3:    3.65430 elapsed seconds
  mediation_integrate: med_read_wrf_chem_emissions: Open file wrfchemi_12z_d03
  HOURLY EMISSIONS UPDATE TIME         .0        .0
 mediation_integrate: med_read_wrf_chem_emissions: Read emissions for time 2016-02-05_12:00:00
 **WARNING** Time in input file not being checked **WARNING**
  Tile Strategy is not specified. Assuming 1D-Y
 WRF TILE   1 IS      1 IE     16 JS      1 JE     12
 WRF NUMBER OF TILES =   1
  photolysis_driver: called for domain  3
Timing for main: time 2016-02-05_12:00:13 on domain   3:    6.18344 elapsed seconds
Timing for main: time 2016-02-05_12:00:26 on domain   3:     .21639 elapsed seconds
Timing for main: time 2016-02-05_12:00:40 on domain   3:     .16588 elapsed seconds
Timing for Writing wrfout_d04_2016-02-05_12:00:00 for domain        4:    3.72367 elapsed seconds
  mediation_integrate: med_read_wrf_chem_emissions: Open file wrfchemi_12z_d04
  HOURLY EMISSIONS UPDATE TIME         .0        .0
 mediation_integrate: med_read_wrf_chem_emissions: Read emissions for time 2016-02-05_12:00:00
 **WARNING** Time in input file not being checked **WARNING**
  Tile Strategy is not specified. Assuming 1D-Y
 WRF TILE   1 IS      1 IE     11 JS      1 JE     20
 WRF NUMBER OF TILES =   1
  photolysis_driver: called for domain  4
Timing for main: time 2016-02-05_12:00:20 on domain   4:    5.95290 elapsed seconds
Timing for main: time 2016-02-05_12:00:40 on domain   4:     .15874 elapsed seconds
Timing for main: time 2016-02-05_12:00:40 on domain   2:   38.55867 elapsed seconds
Timing for main: time 2016-02-05_12:00:53 on domain   3:     .15781 elapsed seconds
Timing for main: time 2016-02-05_12:01:06 on domain   3:     .14703 elapsed seconds
Timing for main: time 2016-02-05_12:01:20 on domain   3:     .14588 elapsed seconds
Timing for main: time 2016-02-05_12:01:00 on domain   4:     .19387 elapsed seconds
Timing for main: time 2016-02-05_12:01:20 on domain   4:     .17839 elapsed seconds
Timing for main: time 2016-02-05_12:01:20 on domain   2:    1.50514 elapsed seconds
Timing for main: time 2016-02-05_12:01:33 on domain   3:     .15960 elapsed seconds
Timing for main: time 2016-02-05_12:01:46 on domain   3:     .14685 elapsed seconds
Timing for main: time 2016-02-05_12:02:00 on domain   3:     .14708 elapsed seconds
Timing for main: time 2016-02-05_12:01:40 on domain   4:     .19313 elapsed seconds
Timing for main: time 2016-02-05_12:02:00 on domain   4:     .17861 elapsed seconds
Timing for main: time 2016-02-05_12:02:00 on domain   2:    1.52888 elapsed seconds
Timing for main: time 2016-02-05_12:02:00 on domain   1:   62.33187 elapsed seconds
Timing for main: time 2016-02-05_12:02:13 on domain   3:     .18039 elapsed seconds
Timing for main: time 2016-02-05_12:02:26 on domain   3:     .18081 elapsed seconds
Timing for main: time 2016-02-05_12:02:40 on domain   3:     .14678 elapsed seconds
Timing for main: time 2016-02-05_12:02:20 on domain   4:     .19305 elapsed seconds
Timing for main: time 2016-02-05_12:02:40 on domain   4:     .18026 elapsed seconds
Timing for main: time 2016-02-05_12:02:40 on domain   2:    1.57620 elapsed seconds
Timing for main: time 2016-02-05_12:02:53 on domain   3:     .15969 elapsed seconds
Timing for main: time 2016-02-05_12:03:06 on domain   3:     .14726 elapsed seconds
Timing for main: time 2016-02-05_12:03:20 on domain   3:     .14756 elapsed seconds
Timing for main: time 2016-02-05_12:03:00 on domain   4:     .19306 elapsed seconds
Timing for main: time 2016-02-05_12:03:20 on domain   4:     .17940 elapsed seconds
Timing for main: time 2016-02-05_12:03:20 on domain   2:    1.52928 elapsed seconds
Timing for main: time 2016-02-05_12:03:33 on domain   3:     .15999 elapsed seconds
Timing for main: time 2016-02-05_12:03:46 on domain   3:     .14759 elapsed seconds
Timing for main: time 2016-02-05_12:04:00 on domain   3:     .14605 elapsed seconds
Timing for main: time 2016-02-05_12:03:40 on domain   4:     .19354 elapsed seconds
Timing for main: time 2016-02-05_12:04:00 on domain   4:     .17881 elapsed seconds
Timing for main: time 2016-02-05_12:04:00 on domain   2:    1.53944 elapsed seconds
Timing for main: time 2016-02-05_12:04:00 on domain   1:    5.00035 elapsed seconds
Timing for main: time 2016-02-05_12:04:13 on domain   3:     .16180 elapsed seconds
Timing for main: time 2016-02-05_12:04:26 on domain   3:     .14577 elapsed seconds
Timing for main: time 2016-02-05_12:04:40 on domain   3:     .18918 elapsed seconds
Timing for main: time 2016-02-05_12:04:20 on domain   4:     .19375 elapsed seconds
Timing for main: time 2016-02-05_12:04:40 on domain   4:     .17879 elapsed seconds
Timing for main: time 2016-02-05_12:04:40 on domain   2:    1.58830 elapsed seconds
Timing for main: time 2016-02-05_12:04:53 on domain   3:     .15959 elapsed seconds
Timing for main: time 2016-02-05_12:05:06 on domain   3:     .15246 elapsed seconds
Timing for main: time 2016-02-05_12:05:20 on domain   3:     .14669 elapsed seconds
Timing for main: time 2016-02-05_12:05:00 on domain   4:     .20002 elapsed seconds
Timing for main: time 2016-02-05_12:05:20 on domain   4:     .17854 elapsed seconds
Timing for main: time 2016-02-05_12:05:20 on domain   2:    1.54613 elapsed seconds
Timing for main: time 2016-02-05_12:05:33 on domain   3:     .16086 elapsed seconds
Timing for main: time 2016-02-05_12:05:46 on domain   3:     .14803 elapsed seconds
Timing for main: time 2016-02-05_12:06:00 on domain   3:     .14659 elapsed seconds
Timing for main: time 2016-02-05_12:05:40 on domain   4:     .19453 elapsed seconds
Timing for main: time 2016-02-05_12:06:00 on domain   4:     .17939 elapsed seconds
Timing for main: time 2016-02-05_12:06:00 on domain   2:    1.53193 elapsed seconds
Timing for main: time 2016-02-05_12:06:00 on domain   1:    5.03908 elapsed seconds
Timing for main: time 2016-02-05_12:06:13 on domain   3:     .16164 elapsed seconds
Timing for main: time 2016-02-05_12:06:26 on domain   3:     .14751 elapsed seconds
Timing for main: time 2016-02-05_12:06:40 on domain   3:     .17744 elapsed seconds
Timing for main: time 2016-02-05_12:06:20 on domain   4:     .19410 elapsed seconds
Timing for main: time 2016-02-05_12:06:40 on domain   4:     .17969 elapsed seconds
Timing for main: time 2016-02-05_12:06:40 on domain   2:    1.58072 elapsed seconds
Timing for main: time 2016-02-05_12:06:53 on domain   3:     .16034 elapsed seconds
Timing for main: time 2016-02-05_12:07:06 on domain   3:     .14637 elapsed seconds
Timing for main: time 2016-02-05_12:07:20 on domain   3:     .15249 elapsed seconds
Timing for main: time 2016-02-05_12:07:00 on domain   4:     .19490 elapsed seconds
Timing for main: time 2016-02-05_12:07:20 on domain   4:     .18001 elapsed seconds
Timing for main: time 2016-02-05_12:07:20 on domain   2:    1.54340 elapsed seconds
Timing for main: time 2016-02-05_12:07:33 on domain   3:     .16063 elapsed seconds
Timing for main: time 2016-02-05_12:07:46 on domain   3:     .14648 elapsed seconds
Timing for main: time 2016-02-05_12:08:00 on domain   3:     .14834 elapsed seconds
Timing for main: time 2016-02-05_12:07:40 on domain   4:     .19406 elapsed seconds
Timing for main: time 2016-02-05_12:08:00 on domain   4:     .17944 elapsed seconds
Timing for main: time 2016-02-05_12:08:00 on domain   2:    1.53149 elapsed seconds
Timing for main: time 2016-02-05_12:08:00 on domain   1:    5.02262 elapsed seconds
Timing for main: time 2016-02-05_12:08:13 on domain   3:     .16052 elapsed seconds
Timing for main: time 2016-02-05_12:08:26 on domain   3:     .14860 elapsed seconds
Timing for main: time 2016-02-05_12:08:40 on domain   3:     .14644 elapsed seconds
Timing for main: time 2016-02-05_12:08:20 on domain   4:     .19432 elapsed seconds
Timing for main: time 2016-02-05_12:08:40 on domain   4:     .19471 elapsed seconds
Timing for main: time 2016-02-05_12:08:40 on domain   2:    1.53799 elapsed seconds
Timing for main: time 2016-02-05_12:08:53 on domain   3:     .16046 elapsed seconds
Timing for main: time 2016-02-05_12:09:06 on domain   3:     .14772 elapsed seconds
Timing for main: time 2016-02-05_12:09:20 on domain   3:     .14752 elapsed seconds
Timing for main: time 2016-02-05_12:09:00 on domain   4:     .19434 elapsed seconds
Timing for main: time 2016-02-05_12:09:20 on domain   4:     .17957 elapsed seconds
Timing for main: time 2016-02-05_12:09:20 on domain   2:    1.53024 elapsed seconds
Timing for main: time 2016-02-05_12:09:33 on domain   3:     .16079 elapsed seconds
Timing for main: time 2016-02-05_12:09:46 on domain   3:     .14863 elapsed seconds
Timing for main: time 2016-02-05_12:10:00 on domain   3:     .14795 elapsed seconds
Timing for main: time 2016-02-05_12:09:40 on domain   4:     .19620 elapsed seconds
Timing for main: time 2016-02-05_12:10:00 on domain   4:     .18521 elapsed seconds
Timing for main: time 2016-02-05_12:10:00 on domain   2:    1.54042 elapsed seconds
Timing for main: time 2016-02-05_12:10:00 on domain   1:    4.97552 elapsed seconds
Timing for main: time 2016-02-05_12:10:13 on domain   3:     .17234 elapsed seconds
Timing for main: time 2016-02-05_12:10:26 on domain   3:     .14558 elapsed seconds
Timing for main: time 2016-02-05_12:10:40 on domain   3:     .15900 elapsed seconds
Timing for main: time 2016-02-05_12:10:20 on domain   4:     .19300 elapsed seconds
Timing for main: time 2016-02-05_12:10:40 on domain   4:     .18054 elapsed seconds
Timing for main: time 2016-02-05_12:10:40 on domain   2:    1.54823 elapsed seconds
Timing for main: time 2016-02-05_12:10:53 on domain   3:     .16083 elapsed seconds
Timing for main: time 2016-02-05_12:11:06 on domain   3:     .14646 elapsed seconds
Timing for main: time 2016-02-05_12:11:20 on domain   3:     .14677 elapsed seconds
Timing for main: time 2016-02-05_12:11:00 on domain   4:     .19479 elapsed seconds
Timing for main: time 2016-02-05_12:11:20 on domain   4:     .18181 elapsed seconds
Timing for main: time 2016-02-05_12:11:20 on domain   2:    1.54820 elapsed seconds
Timing for main: time 2016-02-05_12:11:33 on domain   3:     .16084 elapsed seconds
Timing for main: time 2016-02-05_12:11:46 on domain   3:     .14664 elapsed seconds
Timing for main: time 2016-02-05_12:12:00 on domain   3:     .14799 elapsed seconds
Timing for main: time 2016-02-05_12:11:40 on domain   4:     .19486 elapsed seconds
Timing for main: time 2016-02-05_12:12:00 on domain   4:     .17933 elapsed seconds
Timing for main: time 2016-02-05_12:12:00 on domain   2:    1.52875 elapsed seconds
Timing for main: time 2016-02-05_12:12:00 on domain   1:    4.99678 elapsed seconds
Timing for main: time 2016-02-05_12:12:13 on domain   3:     .16164 elapsed seconds
Timing for main: time 2016-02-05_12:12:26 on domain   3:     .14741 elapsed seconds
Timing for main: time 2016-02-05_12:12:40 on domain   3:     .14793 elapsed seconds
Timing for main: time 2016-02-05_12:12:20 on domain   4:     .19590 elapsed seconds
Timing for main: time 2016-02-05_12:12:40 on domain   4:     .17794 elapsed seconds
Timing for main: time 2016-02-05_12:12:40 on domain   2:    1.52383 elapsed seconds
Timing for main: time 2016-02-05_12:12:53 on domain   3:     .16064 elapsed seconds
Timing for main: time 2016-02-05_12:13:06 on domain   3:     .14673 elapsed seconds
Timing for main: time 2016-02-05_12:13:20 on domain   3:     .14743 elapsed seconds
Timing for main: time 2016-02-05_12:13:00 on domain   4:     .19455 elapsed seconds
Timing for main: time 2016-02-05_12:13:20 on domain   4:     .17872 elapsed seconds
Timing for main: time 2016-02-05_12:13:20 on domain   2:    1.53006 elapsed seconds
Timing for main: time 2016-02-05_12:13:33 on domain   3:     .16078 elapsed seconds
Timing for main: time 2016-02-05_12:13:46 on domain   3:     .14772 elapsed seconds
Timing for main: time 2016-02-05_12:14:00 on domain   3:     .14702 elapsed seconds
Timing for main: time 2016-02-05_12:13:40 on domain   4:     .26689 elapsed seconds
Timing for main: time 2016-02-05_12:14:00 on domain   4:     .19741 elapsed seconds
Timing for main: time 2016-02-05_12:14:00 on domain   2:    1.62143 elapsed seconds
Timing for main: time 2016-02-05_12:14:00 on domain   1:    5.04196 elapsed seconds
Timing for main: time 2016-02-05_12:14:13 on domain   3:     .16086 elapsed seconds
Timing for main: time 2016-02-05_12:14:26 on domain   3:     .14717 elapsed seconds
Timing for main: time 2016-02-05_12:14:40 on domain   3:     .14593 elapsed seconds
Timing for main: time 2016-02-05_12:14:20 on domain   4:     .19508 elapsed seconds
Timing for main: time 2016-02-05_12:14:40 on domain   4:     .18077 elapsed seconds
Timing for main: time 2016-02-05_12:14:40 on domain   2:    1.52460 elapsed seconds
Timing for main: time 2016-02-05_12:14:53 on domain   3:     .15936 elapsed seconds
Timing for main: time 2016-02-05_12:15:06 on domain   3:     .14720 elapsed seconds
Timing for main: time 2016-02-05_12:15:20 on domain   3:     .15224 elapsed seconds
Timing for main: time 2016-02-05_12:15:00 on domain   4:     .20047 elapsed seconds
Timing for main: time 2016-02-05_12:15:20 on domain   4:     .17919 elapsed seconds
Timing for main: time 2016-02-05_12:15:20 on domain   2:    1.54085 elapsed seconds
Timing for main: time 2016-02-05_12:15:33 on domain   3:     .15874 elapsed seconds
Timing for main: time 2016-02-05_12:15:46 on domain   3:     .14749 elapsed seconds
Timing for main: time 2016-02-05_12:16:00 on domain   3:     .14698 elapsed seconds
Timing for main: time 2016-02-05_12:15:40 on domain   4:     .19326 elapsed seconds
Timing for main: time 2016-02-05_12:16:00 on domain   4:     .17913 elapsed seconds
Timing for main: time 2016-02-05_12:16:00 on domain   2:    1.53440 elapsed seconds
Timing for main: time 2016-02-05_12:16:00 on domain   1:    4.96690 elapsed seconds
Timing for main: time 2016-02-05_12:16:13 on domain   3:     .15984 elapsed seconds
Timing for main: time 2016-02-05_12:16:26 on domain   3:     .14624 elapsed seconds
Timing for main: time 2016-02-05_12:16:40 on domain   3:     .14650 elapsed seconds
Timing for main: time 2016-02-05_12:16:20 on domain   4:     .19514 elapsed seconds
Timing for main: time 2016-02-05_12:16:40 on domain   4:     .17906 elapsed seconds
Timing for main: time 2016-02-05_12:16:40 on domain   2:    1.52099 elapsed seconds
Timing for main: time 2016-02-05_12:16:53 on domain   3:     .15956 elapsed seconds
Timing for main: time 2016-02-05_12:17:06 on domain   3:     .14663 elapsed seconds
Timing for main: time 2016-02-05_12:17:20 on domain   3:     .14668 elapsed seconds
Timing for main: time 2016-02-05_12:17:00 on domain   4:     .19532 elapsed seconds
Timing for main: time 2016-02-05_12:17:20 on domain   4:     .17971 elapsed seconds
Timing for main: time 2016-02-05_12:17:20 on domain   2:    1.53015 elapsed seconds
Timing for main: time 2016-02-05_12:17:33 on domain   3:     .16323 elapsed seconds
Timing for main: time 2016-02-05_12:17:46 on domain   3:     .14666 elapsed seconds
Timing for main: time 2016-02-05_12:18:00 on domain   3:     .14665 elapsed seconds
Timing for main: time 2016-02-05_12:17:40 on domain   4:     .19530 elapsed seconds
Timing for main: time 2016-02-05_12:18:00 on domain   4:     .17950 elapsed seconds
Timing for main: time 2016-02-05_12:18:00 on domain   2:    1.53175 elapsed seconds
Timing for main: time 2016-02-05_12:18:00 on domain   1:    4.95496 elapsed seconds
Timing for main: time 2016-02-05_12:18:13 on domain   3:     .16121 elapsed seconds
Timing for main: time 2016-02-05_12:18:26 on domain   3:     .14775 elapsed seconds
Timing for main: time 2016-02-05_12:18:40 on domain   3:     .14685 elapsed seconds
Timing for main: time 2016-02-05_12:18:20 on domain   4:     .19500 elapsed seconds
Timing for main: time 2016-02-05_12:18:40 on domain   4:     .18018 elapsed seconds
Timing for main: time 2016-02-05_12:18:40 on domain   2:    1.52505 elapsed seconds
Timing for main: time 2016-02-05_12:18:53 on domain   3:     .16089 elapsed seconds
Timing for main: time 2016-02-05_12:19:06 on domain   3:     .15222 elapsed seconds
Timing for main: time 2016-02-05_12:19:20 on domain   3:     .14794 elapsed seconds
Timing for main: time 2016-02-05_12:19:00 on domain   4:     .19417 elapsed seconds
Timing for main: time 2016-02-05_12:19:20 on domain   4:     .17974 elapsed seconds
Timing for main: time 2016-02-05_12:19:20 on domain   2:    1.53440 elapsed seconds
Timing for main: time 2016-02-05_12:19:33 on domain   3:     .15959 elapsed seconds
Timing for main: time 2016-02-05_12:19:46 on domain   3:     .14700 elapsed seconds
Timing for main: time 2016-02-05_12:20:00 on domain   3:     .14648 elapsed seconds
Timing for main: time 2016-02-05_12:19:40 on domain   4:     .19373 elapsed seconds
Timing for main: time 2016-02-05_12:20:00 on domain   4:     .18672 elapsed seconds
Timing for main: time 2016-02-05_12:20:00 on domain   2:    1.53366 elapsed seconds
Timing for main: time 2016-02-05_12:20:00 on domain   1:    4.96014 elapsed seconds
Timing for main: time 2016-02-05_12:20:13 on domain   3:     .16246 elapsed seconds
Timing for main: time 2016-02-05_12:20:26 on domain   3:     .15194 elapsed seconds
Timing for main: time 2016-02-05_12:20:40 on domain   3:     .14642 elapsed seconds
Timing for main: time 2016-02-05_12:20:20 on domain   4:     .19526 elapsed seconds
Timing for main: time 2016-02-05_12:20:40 on domain   4:     .18031 elapsed seconds
Timing for main: time 2016-02-05_12:20:40 on domain   2:    1.52880 elapsed seconds
Timing for main: time 2016-02-05_12:20:53 on domain   3:     .15958 elapsed seconds
Timing for main: time 2016-02-05_12:21:06 on domain   3:     .14618 elapsed seconds
Timing for main: time 2016-02-05_12:21:20 on domain   3:     .14658 elapsed seconds
Timing for main: time 2016-02-05_12:21:00 on domain   4:     .19455 elapsed seconds
Timing for main: time 2016-02-05_12:21:20 on domain   4:     .17983 elapsed seconds
Timing for main: time 2016-02-05_12:21:20 on domain   2:    1.53416 elapsed seconds
Timing for main: time 2016-02-05_12:21:33 on domain   3:     .15925 elapsed seconds
Timing for main: time 2016-02-05_12:21:46 on domain   3:     .14690 elapsed seconds
Timing for main: time 2016-02-05_12:22:00 on domain   3:     .14647 elapsed seconds
Timing for main: time 2016-02-05_12:21:40 on domain   4:     .19783 elapsed seconds
Timing for main: time 2016-02-05_12:22:00 on domain   4:     .18044 elapsed seconds
Timing for main: time 2016-02-05_12:22:00 on domain   2:    1.53059 elapsed seconds
Timing for main: time 2016-02-05_12:22:00 on domain   1:    4.95974 elapsed seconds
Timing for main: time 2016-02-05_12:22:13 on domain   3:     .16290 elapsed seconds
Timing for main: time 2016-02-05_12:22:26 on domain   3:     .14626 elapsed seconds
Timing for main: time 2016-02-05_12:22:40 on domain   3:     .14805 elapsed seconds
Timing for main: time 2016-02-05_12:22:20 on domain   4:     .19532 elapsed seconds
Timing for main: time 2016-02-05_12:22:40 on domain   4:     .18033 elapsed seconds
Timing for main: time 2016-02-05_12:22:40 on domain   2:    1.52444 elapsed seconds
Timing for main: time 2016-02-05_12:22:53 on domain   3:     .16026 elapsed seconds
Timing for main: time 2016-02-05_12:23:06 on domain   3:     .15027 elapsed seconds
Timing for main: time 2016-02-05_12:23:20 on domain   3:     .14703 elapsed seconds
Timing for main: time 2016-02-05_12:23:00 on domain   4:     .19514 elapsed seconds
Timing for main: time 2016-02-05_12:23:20 on domain   4:     .18127 elapsed seconds
Timing for main: time 2016-02-05_12:23:20 on domain   2:    1.53508 elapsed seconds
Timing for main: time 2016-02-05_12:23:33 on domain   3:     .15935 elapsed seconds
Timing for main: time 2016-02-05_12:23:46 on domain   3:     .14695 elapsed seconds
Timing for main: time 2016-02-05_12:24:00 on domain   3:     .14707 elapsed seconds
Timing for main: time 2016-02-05_12:23:40 on domain   4:     .19519 elapsed seconds
Timing for main: time 2016-02-05_12:24:00 on domain   4:     .17963 elapsed seconds
Timing for main: time 2016-02-05_12:24:00 on domain   2:    1.52992 elapsed seconds
Timing for main: time 2016-02-05_12:24:00 on domain   1:    4.95938 elapsed seconds
Timing for main: time 2016-02-05_12:24:13 on domain   3:     .16166 elapsed seconds
Timing for main: time 2016-02-05_12:24:26 on domain   3:     .15065 elapsed seconds
Timing for main: time 2016-02-05_12:24:40 on domain   3:     .17073 elapsed seconds
Timing for main: time 2016-02-05_12:24:20 on domain   4:     .19395 elapsed seconds
Timing for main: time 2016-02-05_12:24:40 on domain   4:     .18046 elapsed seconds
Timing for main: time 2016-02-05_12:24:40 on domain   2:    1.58618 elapsed seconds
Timing for main: time 2016-02-05_12:24:53 on domain   3:     .15898 elapsed seconds
Timing for main: time 2016-02-05_12:25:06 on domain   3:     .14992 elapsed seconds
Timing for main: time 2016-02-05_12:25:20 on domain   3:     .14687 elapsed seconds
Timing for main: time 2016-02-05_12:25:00 on domain   4:     .20064 elapsed seconds
Timing for main: time 2016-02-05_12:25:20 on domain   4:     .17941 elapsed seconds
Timing for main: time 2016-02-05_12:25:20 on domain   2:    1.53743 elapsed seconds
Timing for main: time 2016-02-05_12:25:33 on domain   3:     .16503 elapsed seconds
Timing for main: time 2016-02-05_12:25:46 on domain   3:     .14662 elapsed seconds
Timing for main: time 2016-02-05_12:26:00 on domain   3:     .14693 elapsed seconds
Timing for main: time 2016-02-05_12:25:40 on domain   4:     .19574 elapsed seconds
Timing for main: time 2016-02-05_12:26:00 on domain   4:     .18054 elapsed seconds
Timing for main: time 2016-02-05_12:26:00 on domain   2:    1.53605 elapsed seconds
Timing for main: time 2016-02-05_12:26:00 on domain   1:    5.02461 elapsed seconds
Timing for main: time 2016-02-05_12:26:13 on domain   3:     .16023 elapsed seconds
Timing for main: time 2016-02-05_12:26:26 on domain   3:     .14717 elapsed seconds
Timing for main: time 2016-02-05_12:26:40 on domain   3:     .14617 elapsed seconds
Timing for main: time 2016-02-05_12:26:20 on domain   4:     .19531 elapsed seconds
Timing for main: time 2016-02-05_12:26:40 on domain   4:     .18106 elapsed seconds
Timing for main: time 2016-02-05_12:26:40 on domain   2:    1.53078 elapsed seconds
Timing for main: time 2016-02-05_12:26:53 on domain   3:     .16053 elapsed seconds
Timing for main: time 2016-02-05_12:27:06 on domain   3:     .14680 elapsed seconds
Timing for main: time 2016-02-05_12:27:20 on domain   3:     .14652 elapsed seconds
Timing for main: time 2016-02-05_12:27:00 on domain   4:     .19544 elapsed seconds
Timing for main: time 2016-02-05_12:27:20 on domain   4:     .17893 elapsed seconds
Timing for main: time 2016-02-05_12:27:20 on domain   2:    1.52962 elapsed seconds
Timing for main: time 2016-02-05_12:27:33 on domain   3:     .16374 elapsed seconds
Timing for main: time 2016-02-05_12:27:46 on domain   3:     .14333 elapsed seconds
Timing for main: time 2016-02-05_12:28:00 on domain   3:     .14616 elapsed seconds
Timing for main: time 2016-02-05_12:27:40 on domain   4:     .19573 elapsed seconds
Timing for main: time 2016-02-05_12:28:00 on domain   4:     .18017 elapsed seconds
Timing for main: time 2016-02-05_12:28:00 on domain   2:    1.52851 elapsed seconds
Timing for main: time 2016-02-05_12:28:00 on domain   1:    4.95442 elapsed seconds
  photolysis_driver: called for domain  1
Timing for main: time 2016-02-05_12:28:13 on domain   3:     .16010 elapsed seconds
Timing for main: time 2016-02-05_12:28:26 on domain   3:     .14667 elapsed seconds
Timing for main: time 2016-02-05_12:28:40 on domain   3:     .14706 elapsed seconds
Timing for main: time 2016-02-05_12:28:20 on domain   4:     .19534 elapsed seconds
Timing for main: time 2016-02-05_12:28:40 on domain   4:     .17983 elapsed seconds
Timing for main: time 2016-02-05_12:28:40 on domain   2:    1.52235 elapsed seconds
Timing for main: time 2016-02-05_12:28:53 on domain   3:     .16032 elapsed seconds
Timing for main: time 2016-02-05_12:29:06 on domain   3:     .14750 elapsed seconds
Timing for main: time 2016-02-05_12:29:20 on domain   3:     .14651 elapsed seconds
Timing for main: time 2016-02-05_12:29:00 on domain   4:     .19748 elapsed seconds
Timing for main: time 2016-02-05_12:29:20 on domain   4:     .17891 elapsed seconds
Timing for main: time 2016-02-05_12:29:20 on domain   2:    1.53228 elapsed seconds
  photolysis_driver: called for domain  2
Timing for main: time 2016-02-05_12:29:33 on domain   3:     .15911 elapsed seconds
Timing for main: time 2016-02-05_12:29:46 on domain   3:     .14616 elapsed seconds
  photolysis_driver: called for domain  3
Timing for main: time 2016-02-05_12:30:00 on domain   3:     .65007 elapsed seconds
Timing for main: time 2016-02-05_12:29:40 on domain   4:     .19452 elapsed seconds
  photolysis_driver: called for domain  4
Timing for main: time 2016-02-05_12:30:00 on domain   4:     .75060 elapsed seconds
Timing for main: time 2016-02-05_12:30:00 on domain   2:    3.19731 elapsed seconds
Timing for main: time 2016-02-05_12:30:00 on domain   1:    6.98683 elapsed seconds
Timing for main: time 2016-02-05_12:30:13 on domain   3:     .26545 elapsed seconds
Timing for main: time 2016-02-05_12:30:26 on domain   3:     .14386 elapsed seconds
Timing for main: time 2016-02-05_12:30:40 on domain   3:     .15431 elapsed seconds
Timing for main: time 2016-02-05_12:30:20 on domain   4:     .31758 elapsed seconds
Timing for main: time 2016-02-05_12:30:40 on domain   4:     .17952 elapsed seconds
Timing for main: time 2016-02-05_12:30:40 on domain   2:    1.90284 elapsed seconds
Timing for main: time 2016-02-05_12:30:53 on domain   3:     .15980 elapsed seconds
Timing for main: time 2016-02-05_12:31:06 on domain   3:     .14551 elapsed seconds
Timing for main: time 2016-02-05_12:31:20 on domain   3:     .14674 elapsed seconds
Timing for main: time 2016-02-05_12:31:00 on domain   4:     .19354 elapsed seconds
Timing for main: time 2016-02-05_12:31:20 on domain   4:     .21248 elapsed seconds
Timing for main: time 2016-02-05_12:31:20 on domain   2:    1.55867 elapsed seconds
Timing for main: time 2016-02-05_12:31:33 on domain   3:     .16123 elapsed seconds
Timing for main: time 2016-02-05_12:31:46 on domain   3:     .14679 elapsed seconds
Timing for main: time 2016-02-05_12:32:00 on domain   3:     .14674 elapsed seconds
Timing for main: time 2016-02-05_12:31:40 on domain   4:     .19444 elapsed seconds
Timing for main: time 2016-02-05_12:32:00 on domain   4:     .17922 elapsed seconds
Timing for main: time 2016-02-05_12:32:00 on domain   2:    1.58331 elapsed seconds
Timing for main: time 2016-02-05_12:32:00 on domain   1:    5.56300 elapsed seconds
Timing for main: time 2016-02-05_12:32:13 on domain   3:     .15924 elapsed seconds
Timing for main: time 2016-02-05_12:32:26 on domain   3:     .14660 elapsed seconds
Timing for main: time 2016-02-05_12:32:40 on domain   3:     .14637 elapsed seconds
Timing for main: time 2016-02-05_12:32:20 on domain   4:     .19496 elapsed seconds
Timing for main: time 2016-02-05_12:32:40 on domain   4:     .17887 elapsed seconds
Timing for main: time 2016-02-05_12:32:40 on domain   2:    1.51798 elapsed seconds
Timing for main: time 2016-02-05_12:32:53 on domain   3:     .16063 elapsed seconds
Timing for main: time 2016-02-05_12:33:06 on domain   3:     .14438 elapsed seconds
Timing for main: time 2016-02-05_12:33:20 on domain   3:     .14658 elapsed seconds
Timing for main: time 2016-02-05_12:33:00 on domain   4:     .19482 elapsed seconds
Timing for main: time 2016-02-05_12:33:20 on domain   4:     .17918 elapsed seconds
Timing for main: time 2016-02-05_12:33:20 on domain   2:    1.52434 elapsed seconds
Timing for main: time 2016-02-05_12:33:33 on domain   3:     .15962 elapsed seconds
Timing for main: time 2016-02-05_12:33:46 on domain   3:     .14800 elapsed seconds
Timing for main: time 2016-02-05_12:34:00 on domain   3:     .14594 elapsed seconds
Timing for main: time 2016-02-05_12:33:40 on domain   4:     .19474 elapsed seconds
Timing for main: time 2016-02-05_12:34:00 on domain   4:     .17931 elapsed seconds
Timing for main: time 2016-02-05_12:34:00 on domain   2:    1.52702 elapsed seconds
Timing for main: time 2016-02-05_12:34:00 on domain   1:    4.93646 elapsed seconds
Timing for main: time 2016-02-05_12:34:13 on domain   3:     .15820 elapsed seconds
Timing for main: time 2016-02-05_12:34:26 on domain   3:     .15145 elapsed seconds
Timing for main: time 2016-02-05_12:34:40 on domain   3:     .14239 elapsed seconds
Timing for main: time 2016-02-05_12:34:20 on domain   4:     .21527 elapsed seconds
Timing for main: time 2016-02-05_12:34:40 on domain   4:     .22147 elapsed seconds
Timing for main: time 2016-02-05_12:34:40 on domain   2:    1.58121 elapsed seconds
Timing for main: time 2016-02-05_12:34:53 on domain   3:     .15961 elapsed seconds
Timing for main: time 2016-02-05_12:35:06 on domain   3:     .14647 elapsed seconds
Timing for main: time 2016-02-05_12:35:20 on domain   3:     .14539 elapsed seconds
Timing for main: time 2016-02-05_12:35:00 on domain   4:     .20082 elapsed seconds
Timing for main: time 2016-02-05_12:35:20 on domain   4:     .18137 elapsed seconds
Timing for main: time 2016-02-05_12:35:20 on domain   2:    1.54655 elapsed seconds
Timing for main: time 2016-02-05_12:35:33 on domain   3:     .15960 elapsed seconds
Timing for main: time 2016-02-05_12:35:46 on domain   3:     .15094 elapsed seconds
Timing for main: time 2016-02-05_12:36:00 on domain   3:     .14597 elapsed seconds
Timing for main: time 2016-02-05_12:35:40 on domain   4:     .19557 elapsed seconds
Timing for main: time 2016-02-05_12:36:00 on domain   4:     .17850 elapsed seconds
Timing for main: time 2016-02-05_12:36:00 on domain   2:    1.53059 elapsed seconds
Timing for main: time 2016-02-05_12:36:00 on domain   1:    5.02852 elapsed seconds
Timing for main: time 2016-02-05_12:36:13 on domain   3:     .15995 elapsed seconds
Timing for main: time 2016-02-05_12:36:26 on domain   3:     .14499 elapsed seconds
Timing for main: time 2016-02-05_12:36:40 on domain   3:     .15073 elapsed seconds
Timing for main: time 2016-02-05_12:36:20 on domain   4:     .19427 elapsed seconds
Timing for main: time 2016-02-05_12:36:40 on domain   4:     .17907 elapsed seconds
Timing for main: time 2016-02-05_12:36:40 on domain   2:    1.52145 elapsed seconds
Timing for main: time 2016-02-05_12:36:53 on domain   3:     .15970 elapsed seconds
Timing for main: time 2016-02-05_12:37:06 on domain   3:     .14739 elapsed seconds
Timing for main: time 2016-02-05_12:37:20 on domain   3:     .14646 elapsed seconds
Timing for main: time 2016-02-05_12:37:00 on domain   4:     .19455 elapsed seconds
Timing for main: time 2016-02-05_12:37:20 on domain   4:     .17912 elapsed seconds
Timing for main: time 2016-02-05_12:37:20 on domain   2:    1.53281 elapsed seconds
Timing for main: time 2016-02-05_12:37:33 on domain   3:     .15946 elapsed seconds
Timing for main: time 2016-02-05_12:37:46 on domain   3:     .14601 elapsed seconds
Timing for main: time 2016-02-05_12:38:00 on domain   3:     .14573 elapsed seconds
Timing for main: time 2016-02-05_12:37:40 on domain   4:     .19494 elapsed seconds
Timing for main: time 2016-02-05_12:38:00 on domain   4:     .17944 elapsed seconds
Timing for main: time 2016-02-05_12:38:00 on domain   2:    1.52421 elapsed seconds
Timing for main: time 2016-02-05_12:38:00 on domain   1:    4.94439 elapsed seconds
Timing for main: time 2016-02-05_12:38:13 on domain   3:     .16031 elapsed seconds
Timing for main: time 2016-02-05_12:38:26 on domain   3:     .14672 elapsed seconds
Timing for main: time 2016-02-05_12:38:40 on domain   3:     .14356 elapsed seconds
Timing for main: time 2016-02-05_12:38:20 on domain   4:     .19516 elapsed seconds
Timing for main: time 2016-02-05_12:38:40 on domain   4:     .17918 elapsed seconds
Timing for main: time 2016-02-05_12:38:40 on domain   2:    1.51929 elapsed seconds
Timing for main: time 2016-02-05_12:38:53 on domain   3:     .15916 elapsed seconds
Timing for main: time 2016-02-05_12:39:06 on domain   3:     .14634 elapsed seconds
Timing for main: time 2016-02-05_12:39:20 on domain   3:     .14647 elapsed seconds
Timing for main: time 2016-02-05_12:39:00 on domain   4:     .19470 elapsed seconds
Timing for main: time 2016-02-05_12:39:20 on domain   4:     .18076 elapsed seconds
Timing for main: time 2016-02-05_12:39:20 on domain   2:    1.52860 elapsed seconds
Timing for main: time 2016-02-05_12:39:33 on domain   3:     .16026 elapsed seconds
Timing for main: time 2016-02-05_12:39:46 on domain   3:     .14763 elapsed seconds
Timing for main: time 2016-02-05_12:40:00 on domain   3:     .14520 elapsed seconds
Timing for main: time 2016-02-05_12:39:40 on domain   4:     .19366 elapsed seconds
Timing for main: time 2016-02-05_12:40:00 on domain   4:     .18595 elapsed seconds
Timing for main: time 2016-02-05_12:40:00 on domain   2:    1.53093 elapsed seconds
Timing for main: time 2016-02-05_12:40:00 on domain   1:    4.94482 elapsed seconds
Timing for main: time 2016-02-05_12:40:13 on domain   3:     .15800 elapsed seconds
Timing for main: time 2016-02-05_12:40:26 on domain   3:     .14741 elapsed seconds
Timing for main: time 2016-02-05_12:40:40 on domain   3:     .14661 elapsed seconds
Timing for main: time 2016-02-05_12:40:20 on domain   4:     .19514 elapsed seconds
Timing for main: time 2016-02-05_12:40:40 on domain   4:     .18311 elapsed seconds
Timing for main: time 2016-02-05_12:40:40 on domain   2:    1.52081 elapsed seconds
Timing for main: time 2016-02-05_12:40:53 on domain   3:     .16553 elapsed seconds
Timing for main: time 2016-02-05_12:41:06 on domain   3:     .14586 elapsed seconds
Timing for main: time 2016-02-05_12:41:20 on domain   3:     .14684 elapsed seconds
Timing for main: time 2016-02-05_12:41:00 on domain   4:     .19438 elapsed seconds
Timing for main: time 2016-02-05_12:41:20 on domain   4:     .17891 elapsed seconds
Timing for main: time 2016-02-05_12:41:20 on domain   2:    1.53240 elapsed seconds
Timing for main: time 2016-02-05_12:41:33 on domain   3:     .15984 elapsed seconds
Timing for main: time 2016-02-05_12:41:46 on domain   3:     .14516 elapsed seconds
Timing for main: time 2016-02-05_12:42:00 on domain   3:     .14676 elapsed seconds
Timing for main: time 2016-02-05_12:41:40 on domain   4:     .19525 elapsed seconds
Timing for main: time 2016-02-05_12:42:00 on domain   4:     .17856 elapsed seconds
Timing for main: time 2016-02-05_12:42:00 on domain   2:    1.52498 elapsed seconds
Timing for main: time 2016-02-05_12:42:00 on domain   1:    4.94829 elapsed seconds
Timing for main: time 2016-02-05_12:42:13 on domain   3:     .15912 elapsed seconds
Timing for main: time 2016-02-05_12:42:26 on domain   3:     .14561 elapsed seconds
Timing for main: time 2016-02-05_12:42:40 on domain   3:     .14580 elapsed seconds
Timing for main: time 2016-02-05_12:42:20 on domain   4:     .19488 elapsed seconds
Timing for main: time 2016-02-05_12:42:40 on domain   4:     .17885 elapsed seconds
Timing for main: time 2016-02-05_12:42:40 on domain   2:    1.53824 elapsed seconds
Timing for main: time 2016-02-05_12:42:53 on domain   3:     .15934 elapsed seconds
Timing for main: time 2016-02-05_12:43:06 on domain   3:     .14613 elapsed seconds
Timing for main: time 2016-02-05_12:43:20 on domain   3:     .14623 elapsed seconds
Timing for main: time 2016-02-05_12:43:00 on domain   4:     .19644 elapsed seconds
Timing for main: time 2016-02-05_12:43:20 on domain   4:     .18269 elapsed seconds
Timing for main: time 2016-02-05_12:43:20 on domain   2:    1.53106 elapsed seconds
Timing for main: time 2016-02-05_12:43:33 on domain   3:     .15981 elapsed seconds
Timing for main: time 2016-02-05_12:43:46 on domain   3:     .14661 elapsed seconds
Timing for main: time 2016-02-05_12:44:00 on domain   3:     .14943 elapsed seconds
Timing for main: time 2016-02-05_12:43:40 on domain   4:     .19526 elapsed seconds
Timing for main: time 2016-02-05_12:44:00 on domain   4:     .17943 elapsed seconds
Timing for main: time 2016-02-05_12:44:00 on domain   2:    1.56439 elapsed seconds
Timing for main: time 2016-02-05_12:44:00 on domain   1:    5.00056 elapsed seconds
Timing for main: time 2016-02-05_12:44:13 on domain   3:     .16088 elapsed seconds
Timing for main: time 2016-02-05_12:44:26 on domain   3:     .14753 elapsed seconds
Timing for main: time 2016-02-05_12:44:40 on domain   3:     .14695 elapsed seconds
Timing for main: time 2016-02-05_12:44:20 on domain   4:     .19590 elapsed seconds
Timing for main: time 2016-02-05_12:44:40 on domain   4:     .17814 elapsed seconds
Timing for main: time 2016-02-05_12:44:40 on domain   2:    1.51949 elapsed seconds
Timing for main: time 2016-02-05_12:44:53 on domain   3:     .15931 elapsed seconds
Timing for main: time 2016-02-05_12:45:06 on domain   3:     .14589 elapsed seconds
Timing for main: time 2016-02-05_12:45:20 on domain   3:     .14682 elapsed seconds
Timing for main: time 2016-02-05_12:45:00 on domain   4:     .20146 elapsed seconds
Timing for main: time 2016-02-05_12:45:20 on domain   4:     .17923 elapsed seconds
Timing for main: time 2016-02-05_12:45:20 on domain   2:    1.53389 elapsed seconds
Timing for main: time 2016-02-05_12:45:33 on domain   3:     .16001 elapsed seconds
Timing for main: time 2016-02-05_12:45:46 on domain   3:     .14714 elapsed seconds
Timing for main: time 2016-02-05_12:46:00 on domain   3:     .15451 elapsed seconds
Timing for main: time 2016-02-05_12:45:40 on domain   4:     .19559 elapsed seconds
Timing for main: time 2016-02-05_12:46:00 on domain   4:     .17957 elapsed seconds
Timing for main: time 2016-02-05_12:46:00 on domain   2:    1.54502 elapsed seconds
Timing for main: time 2016-02-05_12:46:00 on domain   1:    4.96550 elapsed seconds
Timing for main: time 2016-02-05_12:46:13 on domain   3:     .15974 elapsed seconds
Timing for main: time 2016-02-05_12:46:26 on domain   3:     .14726 elapsed seconds
Timing for main: time 2016-02-05_12:46:40 on domain   3:     .14679 elapsed seconds
Timing for main: time 2016-02-05_12:46:20 on domain   4:     .19513 elapsed seconds
Timing for main: time 2016-02-05_12:46:40 on domain   4:     .17977 elapsed seconds
Timing for main: time 2016-02-05_12:46:40 on domain   2:    1.52049 elapsed seconds
Timing for main: time 2016-02-05_12:46:53 on domain   3:     .15968 elapsed seconds
Timing for main: time 2016-02-05_12:47:06 on domain   3:     .14525 elapsed seconds
Timing for main: time 2016-02-05_12:47:20 on domain   3:     .14750 elapsed seconds
Timing for main: time 2016-02-05_12:47:00 on domain   4:     .19754 elapsed seconds
Timing for main: time 2016-02-05_12:47:20 on domain   4:     .17486 elapsed seconds
Timing for main: time 2016-02-05_12:47:20 on domain   2:    1.52471 elapsed seconds
Timing for main: time 2016-02-05_12:47:33 on domain   3:     .15878 elapsed seconds
Timing for main: time 2016-02-05_12:47:46 on domain   3:     .14667 elapsed seconds
Timing for main: time 2016-02-05_12:48:00 on domain   3:     .14615 elapsed seconds
Timing for main: time 2016-02-05_12:47:40 on domain   4:     .19459 elapsed seconds
Timing for main: time 2016-02-05_12:48:00 on domain   4:     .17944 elapsed seconds
Timing for main: time 2016-02-05_12:48:00 on domain   2:    1.53144 elapsed seconds
Timing for main: time 2016-02-05_12:48:00 on domain   1:    4.95004 elapsed seconds
Timing for main: time 2016-02-05_12:48:13 on domain   3:     .15924 elapsed seconds
Timing for main: time 2016-02-05_12:48:26 on domain   3:     .18488 elapsed seconds
Timing for main: time 2016-02-05_12:48:40 on domain   3:     .17733 elapsed seconds
Timing for main: time 2016-02-05_12:48:20 on domain   4:     .19567 elapsed seconds
Timing for main: time 2016-02-05_12:48:40 on domain   4:     .17895 elapsed seconds
Timing for main: time 2016-02-05_12:48:40 on domain   2:    1.61020 elapsed seconds
Timing for main: time 2016-02-05_12:48:53 on domain   3:     .16226 elapsed seconds
Timing for main: time 2016-02-05_12:49:06 on domain   3:     .14631 elapsed seconds
Timing for main: time 2016-02-05_12:49:20 on domain   3:     .17254 elapsed seconds
Timing for main: time 2016-02-05_12:49:00 on domain   4:     .23975 elapsed seconds
Timing for main: time 2016-02-05_12:49:20 on domain   4:     .17940 elapsed seconds
Timing for main: time 2016-02-05_12:49:20 on domain   2:    1.60144 elapsed seconds
Timing for main: time 2016-02-05_12:49:33 on domain   3:     .15976 elapsed seconds
Timing for main: time 2016-02-05_12:49:46 on domain   3:     .14586 elapsed seconds
Timing for main: time 2016-02-05_12:50:00 on domain   3:     .14715 elapsed seconds
Timing for main: time 2016-02-05_12:49:40 on domain   4:     .19516 elapsed seconds
Timing for main: time 2016-02-05_12:50:00 on domain   4:     .18675 elapsed seconds
Timing for main: time 2016-02-05_12:50:00 on domain   2:    1.53472 elapsed seconds
Timing for main: time 2016-02-05_12:50:00 on domain   1:    5.11214 elapsed seconds
Timing for main: time 2016-02-05_12:50:13 on domain   3:     .15920 elapsed seconds
Timing for main: time 2016-02-05_12:50:26 on domain   3:     .14679 elapsed seconds
Timing for main: time 2016-02-05_12:50:40 on domain   3:     .14654 elapsed seconds
Timing for main: time 2016-02-05_12:50:20 on domain   4:     .19397 elapsed seconds
Timing for main: time 2016-02-05_12:50:40 on domain   4:     .19510 elapsed seconds
Timing for main: time 2016-02-05_12:50:40 on domain   2:    1.53446 elapsed seconds
Timing for main: time 2016-02-05_12:50:53 on domain   3:     .15904 elapsed seconds
Timing for main: time 2016-02-05_12:51:06 on domain   3:     .15105 elapsed seconds
Timing for main: time 2016-02-05_12:51:20 on domain   3:     .14804 elapsed seconds
Timing for main: time 2016-02-05_12:51:00 on domain   4:     .19446 elapsed seconds
Timing for main: time 2016-02-05_12:51:20 on domain   4:     .17965 elapsed seconds
Timing for main: time 2016-02-05_12:51:20 on domain   2:    1.52723 elapsed seconds
Timing for main: time 2016-02-05_12:51:33 on domain   3:     .17262 elapsed seconds
Timing for main: time 2016-02-05_12:51:46 on domain   3:     .14555 elapsed seconds
Timing for main: time 2016-02-05_12:52:00 on domain   3:     .14617 elapsed seconds
Timing for main: time 2016-02-05_12:51:40 on domain   4:     .19572 elapsed seconds
Timing for main: time 2016-02-05_12:52:00 on domain   4:     .17896 elapsed seconds
Timing for main: time 2016-02-05_12:52:00 on domain   2:    1.57186 elapsed seconds
Timing for main: time 2016-02-05_12:52:00 on domain   1:    4.99865 elapsed seconds
Timing for main: time 2016-02-05_12:52:13 on domain   3:     .15944 elapsed seconds
Timing for main: time 2016-02-05_12:52:26 on domain   3:     .14732 elapsed seconds
Timing for main: time 2016-02-05_12:52:40 on domain   3:     .14897 elapsed seconds
Timing for main: time 2016-02-05_12:52:20 on domain   4:     .19582 elapsed seconds
Timing for main: time 2016-02-05_12:52:40 on domain   4:     .17928 elapsed seconds
Timing for main: time 2016-02-05_12:52:40 on domain   2:    1.52308 elapsed seconds
Timing for main: time 2016-02-05_12:52:53 on domain   3:     .15963 elapsed seconds
Timing for main: time 2016-02-05_12:53:06 on domain   3:     .14670 elapsed seconds
Timing for main: time 2016-02-05_12:53:20 on domain   3:     .14667 elapsed seconds
Timing for main: time 2016-02-05_12:53:00 on domain   4:     .19554 elapsed seconds
Timing for main: time 2016-02-05_12:53:20 on domain   4:     .17950 elapsed seconds
Timing for main: time 2016-02-05_12:53:20 on domain   2:    1.53072 elapsed seconds
Timing for main: time 2016-02-05_12:53:33 on domain   3:     .16056 elapsed seconds
Timing for main: time 2016-02-05_12:53:46 on domain   3:     .20039 elapsed seconds
Timing for main: time 2016-02-05_12:54:00 on domain   3:     .20218 elapsed seconds
Timing for main: time 2016-02-05_12:53:40 on domain   4:     .19524 elapsed seconds
Timing for main: time 2016-02-05_12:54:00 on domain   4:     .18011 elapsed seconds
Timing for main: time 2016-02-05_12:54:00 on domain   2:    1.63853 elapsed seconds
Timing for main: time 2016-02-05_12:54:00 on domain   1:    5.06240 elapsed seconds
Timing for main: time 2016-02-05_12:54:13 on domain   3:     .16013 elapsed seconds
Timing for main: time 2016-02-05_12:54:26 on domain   3:     .14541 elapsed seconds
Timing for main: time 2016-02-05_12:54:40 on domain   3:     .14615 elapsed seconds
Timing for main: time 2016-02-05_12:54:20 on domain   4:     .19563 elapsed seconds
Timing for main: time 2016-02-05_12:54:40 on domain   4:     .17749 elapsed seconds
Timing for main: time 2016-02-05_12:54:40 on domain   2:    1.51610 elapsed seconds
Timing for main: time 2016-02-05_12:54:53 on domain   3:     .15863 elapsed seconds
Timing for main: time 2016-02-05_12:55:06 on domain   3:     .14615 elapsed seconds
Timing for main: time 2016-02-05_12:55:20 on domain   3:     .14640 elapsed seconds
Timing for main: time 2016-02-05_12:55:00 on domain   4:     .20167 elapsed seconds
Timing for main: time 2016-02-05_12:55:20 on domain   4:     .17942 elapsed seconds
Timing for main: time 2016-02-05_12:55:20 on domain   2:    1.53247 elapsed seconds
Timing for main: time 2016-02-05_12:55:33 on domain   3:     .15932 elapsed seconds
Timing for main: time 2016-02-05_12:55:46 on domain   3:     .19890 elapsed seconds
Timing for main: time 2016-02-05_12:56:00 on domain   3:     .19930 elapsed seconds
Timing for main: time 2016-02-05_12:55:40 on domain   4:     .19596 elapsed seconds
Timing for main: time 2016-02-05_12:56:00 on domain   4:     .17927 elapsed seconds
Timing for main: time 2016-02-05_12:56:00 on domain   2:    1.63336 elapsed seconds
Timing for main: time 2016-02-05_12:56:00 on domain   1:    5.06975 elapsed seconds
Timing for main: time 2016-02-05_12:56:13 on domain   3:     .16424 elapsed seconds
Timing for main: time 2016-02-05_12:56:26 on domain   3:     .14750 elapsed seconds
Timing for main: time 2016-02-05_12:56:40 on domain   3:     .14643 elapsed seconds
Timing for main: time 2016-02-05_12:56:20 on domain   4:     .19563 elapsed seconds
Timing for main: time 2016-02-05_12:56:40 on domain   4:     .17962 elapsed seconds
Timing for main: time 2016-02-05_12:56:40 on domain   2:    1.52618 elapsed seconds
Timing for main: time 2016-02-05_12:56:53 on domain   3:     .15958 elapsed seconds
Timing for main: time 2016-02-05_12:57:06 on domain   3:     .14761 elapsed seconds
Timing for main: time 2016-02-05_12:57:20 on domain   3:     .14596 elapsed seconds
Timing for main: time 2016-02-05_12:57:00 on domain   4:     .19538 elapsed seconds
Timing for main: time 2016-02-05_12:57:20 on domain   4:     .18046 elapsed seconds
Timing for main: time 2016-02-05_12:57:20 on domain   2:    1.52942 elapsed seconds
Timing for main: time 2016-02-05_12:57:33 on domain   3:     .15920 elapsed seconds
Timing for main: time 2016-02-05_12:57:46 on domain   3:     .14845 elapsed seconds
Timing for main: time 2016-02-05_12:58:00 on domain   3:     .14803 elapsed seconds
Timing for main: time 2016-02-05_12:57:40 on domain   4:     .19614 elapsed seconds
Timing for main: time 2016-02-05_12:58:00 on domain   4:     .17913 elapsed seconds
Timing for main: time 2016-02-05_12:58:00 on domain   2:    1.53927 elapsed seconds
Timing for main: time 2016-02-05_12:58:00 on domain   1:    4.96102 elapsed seconds
  photolysis_driver: called for domain  1
Timing for main: time 2016-02-05_12:58:13 on domain   3:     .15977 elapsed seconds
Timing for main: time 2016-02-05_12:58:26 on domain   3:     .14658 elapsed seconds
Timing for main: time 2016-02-05_12:58:40 on domain   3:     .14578 elapsed seconds
Timing for main: time 2016-02-05_12:58:20 on domain   4:     .19536 elapsed seconds
Timing for main: time 2016-02-05_12:58:40 on domain   4:     .17925 elapsed seconds
Timing for main: time 2016-02-05_12:58:40 on domain   2:    1.52500 elapsed seconds
Timing for main: time 2016-02-05_12:58:53 on domain   3:     .15969 elapsed seconds
Timing for main: time 2016-02-05_12:59:06 on domain   3:     .14612 elapsed seconds
Timing for main: time 2016-02-05_12:59:20 on domain   3:     .14715 elapsed seconds
Timing for main: time 2016-02-05_12:59:00 on domain   4:     .19635 elapsed seconds
Timing for main: time 2016-02-05_12:59:20 on domain   4:     .17958 elapsed seconds
Timing for main: time 2016-02-05_12:59:20 on domain   2:    1.52766 elapsed seconds
  photolysis_driver: called for domain  2
Timing for main: time 2016-02-05_12:59:33 on domain   3:     .15974 elapsed seconds
Timing for main: time 2016-02-05_12:59:46 on domain   3:     .14827 elapsed seconds
  photolysis_driver: called for domain  3
Timing for main: time 2016-02-05_13:00:00 on domain   3:     .64950 elapsed seconds
Timing for main: time 2016-02-05_12:59:40 on domain   4:     .19897 elapsed seconds
  photolysis_driver: called for domain  4
Timing for main: time 2016-02-05_13:00:00 on domain   4:     .74952 elapsed seconds
Timing for main: time 2016-02-05_13:00:00 on domain   2:    3.20368 elapsed seconds
Timing for main: time 2016-02-05_13:00:00 on domain   1:    6.98709 elapsed seconds
Timing for Writing wrfout_d01_2016-02-05_13:00:00 for domain        1:    2.92456 elapsed seconds
  HOURLY EMISSIONS UPDATE TIME     3600.0        .0
 mediation_integrate: med_read_wrf_chem_emissions: Read emissions for time 2016-02-05_13:00:00
 **WARNING** Time in input file not being checked **WARNING**
Timing for Writing wrfout_d02_2016-02-05_13:00:00 for domain        2:    3.74258 elapsed seconds
Timing for Writing wrfout_d03_2016-02-05_13:00:00 for domain        3:    3.33879 elapsed seconds
Timing for main: time 2016-02-05_13:00:13 on domain   3:    3.64904 elapsed seconds
Timing for main: time 2016-02-05_13:00:26 on domain   3:     .14776 elapsed seconds
Timing for main: time 2016-02-05_13:00:40 on domain   3:     .14731 elapsed seconds
Timing for Writing wrfout_d04_2016-02-05_13:00:00 for domain        4:    3.74300 elapsed seconds
Timing for main: time 2016-02-05_13:00:20 on domain   4:    4.11412 elapsed seconds
Timing for main: time 2016-02-05_13:00:40 on domain   4:     .17806 elapsed seconds
Timing for main: time 2016-02-05_13:00:40 on domain   2:   12.90308 elapsed seconds
Timing for main: time 2016-02-05_13:00:53 on domain   3:     .15708 elapsed seconds
Timing for main: time 2016-02-05_13:01:06 on domain   3:     .14725 elapsed seconds
Timing for main: time 2016-02-05_13:01:20 on domain   3:     .15189 elapsed seconds
Timing for main: time 2016-02-05_13:01:00 on domain   4:     .19427 elapsed seconds
Timing for main: time 2016-02-05_13:01:20 on domain   4:     .18021 elapsed seconds
Timing for main: time 2016-02-05_13:01:20 on domain   2:    1.53106 elapsed seconds
Timing for main: time 2016-02-05_13:01:33 on domain   3:     .15849 elapsed seconds
Timing for main: time 2016-02-05_13:01:46 on domain   3:     .14559 elapsed seconds
Timing for main: time 2016-02-05_13:02:00 on domain   3:     .14998 elapsed seconds
Timing for main: time 2016-02-05_13:01:40 on domain   4:     .19535 elapsed seconds
Timing for main: time 2016-02-05_13:02:00 on domain   4:     .17885 elapsed seconds
Timing for main: time 2016-02-05_13:02:00 on domain   2:    1.52910 elapsed seconds
Timing for main: time 2016-02-05_13:02:00 on domain   1:   19.77493 elapsed seconds
Timing for main: time 2016-02-05_13:02:13 on domain   3:     .15978 elapsed seconds
Timing for main: time 2016-02-05_13:02:26 on domain   3:     .14540 elapsed seconds
Timing for main: time 2016-02-05_13:02:40 on domain   3:     .14731 elapsed seconds
Timing for main: time 2016-02-05_13:02:20 on domain   4:     .19438 elapsed seconds
Timing for main: time 2016-02-05_13:02:40 on domain   4:     .18410 elapsed seconds
Timing for main: time 2016-02-05_13:02:40 on domain   2:    1.52510 elapsed seconds
Timing for main: time 2016-02-05_13:02:53 on domain   3:     .15909 elapsed seconds
Timing for main: time 2016-02-05_13:03:06 on domain   3:     .14403 elapsed seconds
Timing for main: time 2016-02-05_13:03:20 on domain   3:     .14842 elapsed seconds
Timing for main: time 2016-02-05_13:03:00 on domain   4:     .19559 elapsed seconds
Timing for main: time 2016-02-05_13:03:20 on domain   4:     .17956 elapsed seconds
Timing for main: time 2016-02-05_13:03:20 on domain   2:    1.52331 elapsed seconds
Timing for main: time 2016-02-05_13:03:33 on domain   3:     .16013 elapsed seconds
Timing for main: time 2016-02-05_13:03:46 on domain   3:     .16276 elapsed seconds
Timing for main: time 2016-02-05_13:04:00 on domain   3:     .16860 elapsed seconds
Timing for main: time 2016-02-05_13:03:40 on domain   4:     .19582 elapsed seconds
Timing for main: time 2016-02-05_13:04:00 on domain   4:     .17991 elapsed seconds
Timing for main: time 2016-02-05_13:04:00 on domain   2:    1.57192 elapsed seconds
Timing for main: time 2016-02-05_13:04:00 on domain   1:    4.98597 elapsed seconds
Timing for main: time 2016-02-05_13:04:13 on domain   3:     .15940 elapsed seconds
Timing for main: time 2016-02-05_13:04:26 on domain   3:     .14714 elapsed seconds
Timing for main: time 2016-02-05_13:04:40 on domain   3:     .14559 elapsed seconds
Timing for main: time 2016-02-05_13:04:20 on domain   4:     .19479 elapsed seconds
Timing for main: time 2016-02-05_13:04:40 on domain   4:     .17834 elapsed seconds
Timing for main: time 2016-02-05_13:04:40 on domain   2:    1.51829 elapsed seconds
Timing for main: time 2016-02-05_13:04:53 on domain   3:     .16049 elapsed seconds
Timing for main: time 2016-02-05_13:05:06 on domain   3:     .14630 elapsed seconds
Timing for main: time 2016-02-05_13:05:20 on domain   3:     .14816 elapsed seconds
Timing for main: time 2016-02-05_13:05:00 on domain   4:     .20266 elapsed seconds
Timing for main: time 2016-02-05_13:05:20 on domain   4:     .17817 elapsed seconds
Timing for main: time 2016-02-05_13:05:20 on domain   2:    1.53635 elapsed seconds
Timing for main: time 2016-02-05_13:05:33 on domain   3:     .15911 elapsed seconds
Timing for main: time 2016-02-05_13:05:46 on domain   3:     .14779 elapsed seconds
Timing for main: time 2016-02-05_13:06:00 on domain   3:     .14625 elapsed seconds
Timing for main: time 2016-02-05_13:05:40 on domain   4:     .19487 elapsed seconds
Timing for main: time 2016-02-05_13:06:00 on domain   4:     .17947 elapsed seconds
Timing for main: time 2016-02-05_13:06:00 on domain   2:    1.52742 elapsed seconds
Timing for main: time 2016-02-05_13:06:00 on domain   1:    4.95206 elapsed seconds
Timing for main: time 2016-02-05_13:06:13 on domain   3:     .15960 elapsed seconds
Timing for main: time 2016-02-05_13:06:26 on domain   3:     .15143 elapsed seconds
Timing for main: time 2016-02-05_13:06:40 on domain   3:     .14733 elapsed seconds
Timing for main: time 2016-02-05_13:06:20 on domain   4:     .19520 elapsed seconds
Timing for main: time 2016-02-05_13:06:40 on domain   4:     .17759 elapsed seconds
Timing for main: time 2016-02-05_13:06:40 on domain   2:    1.52185 elapsed seconds
Timing for main: time 2016-02-05_13:06:53 on domain   3:     .15979 elapsed seconds
Timing for main: time 2016-02-05_13:07:06 on domain   3:     .14706 elapsed seconds
Timing for main: time 2016-02-05_13:07:20 on domain   3:     .14619 elapsed seconds
Timing for main: time 2016-02-05_13:07:00 on domain   4:     .19558 elapsed seconds
Timing for main: time 2016-02-05_13:07:20 on domain   4:     .17846 elapsed seconds
Timing for main: time 2016-02-05_13:07:20 on domain   2:    1.59944 elapsed seconds
Timing for main: time 2016-02-05_13:07:33 on domain   3:     .15921 elapsed seconds
Timing for main: time 2016-02-05_13:07:46 on domain   3:     .14571 elapsed seconds
Timing for main: time 2016-02-05_13:08:00 on domain   3:     .14586 elapsed seconds
Timing for main: time 2016-02-05_13:07:40 on domain   4:     .19465 elapsed seconds
Timing for main: time 2016-02-05_13:08:00 on domain   4:     .18112 elapsed seconds
Timing for main: time 2016-02-05_13:08:00 on domain   2:    1.52568 elapsed seconds
Timing for main: time 2016-02-05_13:08:00 on domain   1:    5.01253 elapsed seconds
Timing for main: time 2016-02-05_13:08:13 on domain   3:     .15987 elapsed seconds
Timing for main: time 2016-02-05_13:08:26 on domain   3:     .14818 elapsed seconds
Timing for main: time 2016-02-05_13:08:40 on domain   3:     .14597 elapsed seconds
Timing for main: time 2016-02-05_13:08:20 on domain   4:     .19489 elapsed seconds
Timing for main: time 2016-02-05_13:08:40 on domain   4:     .18259 elapsed seconds
Timing for main: time 2016-02-05_13:08:40 on domain   2:    1.52460 elapsed seconds
Timing for main: time 2016-02-05_13:08:53 on domain   3:     .15940 elapsed seconds
Timing for main: time 2016-02-05_13:09:06 on domain   3:     .14638 elapsed seconds
Timing for main: time 2016-02-05_13:09:20 on domain   3:     .14584 elapsed seconds
Timing for main: time 2016-02-05_13:09:00 on domain   4:     .19481 elapsed seconds
Timing for main: time 2016-02-05_13:09:20 on domain   4:     .17740 elapsed seconds
Timing for main: time 2016-02-05_13:09:20 on domain   2:    1.52982 elapsed seconds
Timing for main: time 2016-02-05_13:09:33 on domain   3:     .15956 elapsed seconds
Timing for main: time 2016-02-05_13:09:46 on domain   3:     .14788 elapsed seconds
Timing for main: time 2016-02-05_13:10:00 on domain   3:     .14637 elapsed seconds
Timing for main: time 2016-02-05_13:09:40 on domain   4:     .19499 elapsed seconds
Timing for main: time 2016-02-05_13:10:00 on domain   4:     .18540 elapsed seconds
Timing for main: time 2016-02-05_13:10:00 on domain   2:    1.53593 elapsed seconds
Timing for main: time 2016-02-05_13:10:00 on domain   1:    4.95505 elapsed seconds
Timing for main: time 2016-02-05_13:10:13 on domain   3:     .15901 elapsed seconds
Timing for main: time 2016-02-05_13:10:26 on domain   3:     .14650 elapsed seconds
Timing for main: time 2016-02-05_13:10:40 on domain   3:     .14582 elapsed seconds
Timing for main: time 2016-02-05_13:10:20 on domain   4:     .19563 elapsed seconds
Timing for main: time 2016-02-05_13:10:40 on domain   4:     .17945 elapsed seconds
Timing for main: time 2016-02-05_13:10:40 on domain   2:    1.51745 elapsed seconds
Timing for main: time 2016-02-05_13:10:53 on domain   3:     .15921 elapsed seconds
Timing for main: time 2016-02-05_13:11:06 on domain   3:     .14544 elapsed seconds
Timing for main: time 2016-02-05_13:11:20 on domain   3:     .14777 elapsed seconds
Timing for main: time 2016-02-05_13:11:00 on domain   4:     .19578 elapsed seconds
Timing for main: time 2016-02-05_13:11:20 on domain   4:     .17894 elapsed seconds
Timing for main: time 2016-02-05_13:11:20 on domain   2:    1.52580 elapsed seconds
Timing for main: time 2016-02-05_13:11:33 on domain   3:     .16497 elapsed seconds
Timing for main: time 2016-02-05_13:11:46 on domain   3:     .14612 elapsed seconds
Timing for main: time 2016-02-05_13:12:00 on domain   3:     .14598 elapsed seconds
Timing for main: time 2016-02-05_13:11:40 on domain   4:     .20396 elapsed seconds
Timing for main: time 2016-02-05_13:12:00 on domain   4:     .17956 elapsed seconds
Timing for main: time 2016-02-05_13:12:00 on domain   2:    1.54258 elapsed seconds
Timing for main: time 2016-02-05_13:12:00 on domain   1:    4.95642 elapsed seconds
Timing for main: time 2016-02-05_13:12:13 on domain   3:     .15904 elapsed seconds
Timing for main: time 2016-02-05_13:12:26 on domain   3:     .14604 elapsed seconds
Timing for main: time 2016-02-05_13:12:40 on domain   3:     .14564 elapsed seconds
Timing for main: time 2016-02-05_13:12:20 on domain   4:     .19489 elapsed seconds
Timing for main: time 2016-02-05_13:12:40 on domain   4:     .18024 elapsed seconds
Timing for main: time 2016-02-05_13:12:40 on domain   2:    1.51791 elapsed seconds
Timing for main: time 2016-02-05_13:12:53 on domain   3:     .16034 elapsed seconds
Timing for main: time 2016-02-05_13:13:06 on domain   3:     .14664 elapsed seconds
Timing for main: time 2016-02-05_13:13:20 on domain   3:     .14642 elapsed seconds
Timing for main: time 2016-02-05_13:13:00 on domain   4:     .20905 elapsed seconds
Timing for main: time 2016-02-05_13:13:20 on domain   4:     .19178 elapsed seconds
Timing for main: time 2016-02-05_13:13:20 on domain   2:    1.55255 elapsed seconds
Timing for main: time 2016-02-05_13:13:33 on domain   3:     .15910 elapsed seconds
Timing for main: time 2016-02-05_13:13:46 on domain   3:     .14663 elapsed seconds
Timing for main: time 2016-02-05_13:14:00 on domain   3:     .14693 elapsed seconds
Timing for main: time 2016-02-05_13:13:40 on domain   4:     .19509 elapsed seconds
Timing for main: time 2016-02-05_13:14:00 on domain   4:     .18002 elapsed seconds
Timing for main: time 2016-02-05_13:14:00 on domain   2:    1.52676 elapsed seconds
Timing for main: time 2016-02-05_13:14:00 on domain   1:    4.96470 elapsed seconds
Timing for main: time 2016-02-05_13:14:13 on domain   3:     .15910 elapsed seconds
Timing for main: time 2016-02-05_13:14:26 on domain   3:     .14593 elapsed seconds
Timing for main: time 2016-02-05_13:14:40 on domain   3:     .14679 elapsed seconds
Timing for main: time 2016-02-05_13:14:20 on domain   4:     .19551 elapsed seconds
Timing for main: time 2016-02-05_13:14:40 on domain   4:     .18524 elapsed seconds
Timing for main: time 2016-02-05_13:14:40 on domain   2:    1.53093 elapsed seconds
Timing for main: time 2016-02-05_13:14:53 on domain   3:     .15946 elapsed seconds
Timing for main: time 2016-02-05_13:15:06 on domain   3:     .14691 elapsed seconds
Timing for main: time 2016-02-05_13:15:20 on domain   3:     .14583 elapsed seconds
Timing for main: time 2016-02-05_13:15:00 on domain   4:     .20192 elapsed seconds
Timing for main: time 2016-02-05_13:15:20 on domain   4:     .17778 elapsed seconds
Timing for main: time 2016-02-05_13:15:20 on domain   2:    1.58773 elapsed seconds
Timing for main: time 2016-02-05_13:15:33 on domain   3:     .16000 elapsed seconds
Timing for main: time 2016-02-05_13:15:46 on domain   3:     .14713 elapsed seconds
Timing for main: time 2016-02-05_13:16:00 on domain   3:     .14666 elapsed seconds
Timing for main: time 2016-02-05_13:15:40 on domain   4:     .19553 elapsed seconds
Timing for main: time 2016-02-05_13:16:00 on domain   4:     .17974 elapsed seconds
Timing for main: time 2016-02-05_13:16:00 on domain   2:    1.53095 elapsed seconds
Timing for main: time 2016-02-05_13:16:00 on domain   1:    5.01507 elapsed seconds
Timing for main: time 2016-02-05_13:16:13 on domain   3:     .15924 elapsed seconds
Timing for main: time 2016-02-05_13:16:26 on domain   3:     .14726 elapsed seconds
Timing for main: time 2016-02-05_13:16:40 on domain   3:     .15322 elapsed seconds
Timing for main: time 2016-02-05_13:16:20 on domain   4:     .19556 elapsed seconds
Timing for main: time 2016-02-05_13:16:40 on domain   4:     .18250 elapsed seconds
Timing for main: time 2016-02-05_13:16:40 on domain   2:    1.53165 elapsed seconds
Timing for main: time 2016-02-05_13:16:53 on domain   3:     .15868 elapsed seconds
Timing for main: time 2016-02-05_13:17:06 on domain   3:     .14754 elapsed seconds
Timing for main: time 2016-02-05_13:17:20 on domain   3:     .14687 elapsed seconds
Timing for main: time 2016-02-05_13:17:00 on domain   4:     .19531 elapsed seconds
Timing for main: time 2016-02-05_13:17:20 on domain   4:     .17990 elapsed seconds
Timing for main: time 2016-02-05_13:17:20 on domain   2:    1.52559 elapsed seconds
Timing for main: time 2016-02-05_13:17:33 on domain   3:     .15962 elapsed seconds
[...]
Timing for main: time 2016-02-05_17:36:00 on domain   2:    1.53211 elapsed seconds
Timing for main: time 2016-02-05_17:36:00 on domain   1:    4.95003 elapsed seconds
Timing for main: time 2016-02-05_17:36:13 on domain   3:     .16011 elapsed seconds
Timing for main: time 2016-02-05_17:36:26 on domain   3:     .14549 elapsed seconds
Timing for main: time 2016-02-05_17:36:40 on domain   3:     .14607 elapsed seconds
Timing for main: time 2016-02-05_17:36:20 on domain   4:     .19632 elapsed seconds
Timing for main: time 2016-02-05_17:36:40 on domain   4:     .17860 elapsed seconds
Timing for main: time 2016-02-05_17:36:40 on domain   2:    1.51793 elapsed seconds
Timing for main: time 2016-02-05_17:36:53 on domain   3:     .16043 elapsed seconds
Timing for main: time 2016-02-05_17:37:06 on domain   3:     .14579 elapsed seconds
Timing for main: time 2016-02-05_17:37:20 on domain   3:     .15054 elapsed seconds
Timing for main: time 2016-02-05_17:37:00 on domain   4:     .19540 elapsed seconds
Timing for main: time 2016-02-05_17:37:20 on domain   4:     .17963 elapsed seconds
Timing for main: time 2016-02-05_17:37:20 on domain   2:    1.53256 elapsed seconds
Timing for main: time 2016-02-05_17:37:33 on domain   3:     .16014 elapsed seconds
Timing for main: time 2016-02-05_17:37:46 on domain   3:     .14597 elapsed seconds
Timing for main: time 2016-02-05_17:38:00 on domain   3:     .14746 elapsed seconds
Timing for main: time 2016-02-05_17:37:40 on domain   4:     .19549 elapsed seconds
Timing for main: time 2016-02-05_17:38:00 on domain   4:     .17976 elapsed seconds
Timing for main: time 2016-02-05_17:38:00 on domain   2:    1.52902 elapsed seconds
Timing for main: time 2016-02-05_17:38:00 on domain   1:    4.94211 elapsed seconds
Timing for main: time 2016-02-05_17:38:13 on domain   3:     .15927 elapsed seconds
Timing for main: time 2016-02-05_17:38:26 on domain   3:     .14599 elapsed seconds
Timing for main: time 2016-02-05_17:38:40 on domain   3:     .14582 elapsed seconds
Timing for main: time 2016-02-05_17:38:20 on domain   4:     .19542 elapsed seconds
Timing for main: time 2016-02-05_17:38:40 on domain   4:     .17871 elapsed seconds
Timing for main: time 2016-02-05_17:38:40 on domain   2:    1.51931 elapsed seconds
Timing for main: time 2016-02-05_17:38:53 on domain   3:     .16010 elapsed seconds
Timing for main: time 2016-02-05_17:39:06 on domain   3:     .14556 elapsed seconds
Timing for main: time 2016-02-05_17:39:20 on domain   3:     .14696 elapsed seconds
Timing for main: time 2016-02-05_17:39:00 on domain   4:     .19564 elapsed seconds
Timing for main: time 2016-02-05_17:39:20 on domain   4:     .17875 elapsed seconds
Timing for main: time 2016-02-05_17:39:20 on domain   2:    1.52763 elapsed seconds
Timing for main: time 2016-02-05_17:39:33 on domain   3:     .15939 elapsed seconds
Timing for main: time 2016-02-05_17:39:46 on domain   3:     .14817 elapsed seconds
Timing for main: time 2016-02-05_17:40:00 on domain   3:     .14643 elapsed seconds
Timing for main: time 2016-02-05_17:39:40 on domain   4:     .19555 elapsed seconds
Timing for main: time 2016-02-05_17:40:00 on domain   4:     .18546 elapsed seconds
Timing for main: time 2016-02-05_17:40:00 on domain   2:    1.53624 elapsed seconds
Timing for main: time 2016-02-05_17:40:00 on domain   1:    4.94895 elapsed seconds
Timing for main: time 2016-02-05_17:40:13 on domain   3:     .16073 elapsed seconds
Timing for main: time 2016-02-05_17:40:26 on domain   3:     .14560 elapsed seconds
Timing for main: time 2016-02-05_17:40:40 on domain   3:     .14629 elapsed seconds
Timing for main: time 2016-02-05_17:40:20 on domain   4:     .19591 elapsed seconds
Timing for main: time 2016-02-05_17:40:40 on domain   4:     .17892 elapsed seconds
Timing for main: time 2016-02-05_17:40:40 on domain   2:    1.52125 elapsed seconds
Timing for main: time 2016-02-05_17:40:53 on domain   3:     .16043 elapsed seconds
Timing for main: time 2016-02-05_17:41:06 on domain   3:     .14571 elapsed seconds
Timing for main: time 2016-02-05_17:41:20 on domain   3:     .14583 elapsed seconds
Timing for main: time 2016-02-05_17:41:00 on domain   4:     .19464 elapsed seconds
Timing for main: time 2016-02-05_17:41:20 on domain   4:     .18031 elapsed seconds
Timing for main: time 2016-02-05_17:41:20 on domain   2:    1.53294 elapsed seconds
Timing for main: time 2016-02-05_17:41:33 on domain   3:     .16090 elapsed seconds
Timing for main: time 2016-02-05_17:41:46 on domain   3:     .14690 elapsed seconds
Timing for main: time 2016-02-05_17:42:00 on domain   3:     .15655 elapsed seconds
Timing for main: time 2016-02-05_17:41:40 on domain   4:     .19592 elapsed seconds
Timing for main: time 2016-02-05_17:42:00 on domain   4:     .17888 elapsed seconds
Timing for main: time 2016-02-05_17:42:00 on domain   2:    1.53997 elapsed seconds
Timing for main: time 2016-02-05_17:42:00 on domain   1:    4.96147 elapsed seconds
Timing for main: time 2016-02-05_17:42:13 on domain   3:     .16896 elapsed seconds
Timing for main: time 2016-02-05_17:42:26 on domain   3:     .15174 elapsed seconds
Timing for main: time 2016-02-05_17:42:40 on domain   3:     .14534 elapsed seconds
Timing for main: time 2016-02-05_17:42:20 on domain   4:     .19671 elapsed seconds
Timing for main: time 2016-02-05_17:42:40 on domain   4:     .17842 elapsed seconds
Timing for main: time 2016-02-05_17:42:40 on domain   2:    1.57208 elapsed seconds
Timing for main: time 2016-02-05_17:42:53 on domain   3:     .16047 elapsed seconds
Timing for main: time 2016-02-05_17:43:06 on domain   3:     .14650 elapsed seconds
Timing for main: time 2016-02-05_17:43:20 on domain   3:     .14772 elapsed seconds
Timing for main: time 2016-02-05_17:43:00 on domain   4:     .19574 elapsed seconds
Timing for main: time 2016-02-05_17:43:20 on domain   4:     .17954 elapsed seconds
Timing for main: time 2016-02-05_17:43:20 on domain   2:    1.53077 elapsed seconds
Timing for main: time 2016-02-05_17:43:33 on domain   3:     .16099 elapsed seconds
Timing for main: time 2016-02-05_17:43:46 on domain   3:     .14554 elapsed seconds
Timing for main: time 2016-02-05_17:44:00 on domain   3:     .14751 elapsed seconds
Timing for main: time 2016-02-05_17:43:40 on domain   4:     .21643 elapsed seconds
Timing for main: time 2016-02-05_17:44:00 on domain   4:     .17592 elapsed seconds
Timing for main: time 2016-02-05_17:44:00 on domain   2:    1.58589 elapsed seconds
Timing for main: time 2016-02-05_17:44:00 on domain   1:    5.05199 elapsed seconds
Timing for main: time 2016-02-05_17:44:13 on domain   3:     .16041 elapsed seconds
Timing for main: time 2016-02-05_17:44:26 on domain   3:     .14730 elapsed seconds
Timing for main: time 2016-02-05_17:44:40 on domain   3:     .14548 elapsed seconds
Timing for main: time 2016-02-05_17:44:20 on domain   4:     .19524 elapsed seconds
Timing for main: time 2016-02-05_17:44:40 on domain   4:     .17942 elapsed seconds
Timing for main: time 2016-02-05_17:44:40 on domain   2:    1.52298 elapsed seconds
Timing for main: time 2016-02-05_17:44:53 on domain   3:     .16531 elapsed seconds
Timing for main: time 2016-02-05_17:45:06 on domain   3:     .14512 elapsed seconds
Timing for main: time 2016-02-05_17:45:20 on domain   3:     .14508 elapsed seconds
Timing for main: time 2016-02-05_17:45:00 on domain   4:     .20119 elapsed seconds
Timing for main: time 2016-02-05_17:45:20 on domain   4:     .17884 elapsed seconds
Timing for main: time 2016-02-05_17:45:20 on domain   2:    1.55928 elapsed seconds
Timing for main: time 2016-02-05_17:45:33 on domain   3:     .15949 elapsed seconds
Timing for main: time 2016-02-05_17:45:46 on domain   3:     .14740 elapsed seconds
Timing for main: time 2016-02-05_17:46:00 on domain   3:     .14627 elapsed seconds
Timing for main: time 2016-02-05_17:45:40 on domain   4:     .19613 elapsed seconds
Timing for main: time 2016-02-05_17:46:00 on domain   4:     .17893 elapsed seconds
Timing for main: time 2016-02-05_17:46:00 on domain   2:    1.52805 elapsed seconds
Timing for main: time 2016-02-05_17:46:00 on domain   1:    4.97337 elapsed seconds
Timing for main: time 2016-02-05_17:46:13 on domain   3:     .15995 elapsed seconds
Timing for main: time 2016-02-05_17:46:26 on domain   3:     .14681 elapsed seconds
Timing for main: time 2016-02-05_17:46:40 on domain   3:     .14963 elapsed seconds
Timing for main: time 2016-02-05_17:46:20 on domain   4:     .19478 elapsed seconds
Timing for main: time 2016-02-05_17:46:40 on domain   4:     .17922 elapsed seconds
Timing for main: time 2016-02-05_17:46:40 on domain   2:    1.53087 elapsed seconds
Timing for main: time 2016-02-05_17:46:53 on domain   3:     .15963 elapsed seconds
Timing for main: time 2016-02-05_17:47:06 on domain   3:     .14599 elapsed seconds
Timing for main: time 2016-02-05_17:47:20 on domain   3:     .14605 elapsed seconds
Timing for main: time 2016-02-05_17:47:00 on domain   4:     .19586 elapsed seconds
Timing for main: time 2016-02-05_17:47:20 on domain   4:     .17949 elapsed seconds
Timing for main: time 2016-02-05_17:47:20 on domain   2:    1.52697 elapsed seconds
Timing for main: time 2016-02-05_17:47:33 on domain   3:     .16503 elapsed seconds
Timing for main: time 2016-02-05_17:47:46 on domain   3:     .14612 elapsed seconds
Timing for main: time 2016-02-05_17:48:00 on domain   3:     .14770 elapsed seconds
Timing for main: time 2016-02-05_17:47:40 on domain   4:     .19475 elapsed seconds
Timing for main: time 2016-02-05_17:48:00 on domain   4:     .17907 elapsed seconds
Timing for main: time 2016-02-05_17:48:00 on domain   2:    1.53320 elapsed seconds
Timing for main: time 2016-02-05_17:48:00 on domain   1:    4.95785 elapsed seconds
Timing for main: time 2016-02-05_17:48:13 on domain   3:     .15983 elapsed seconds
Timing for main: time 2016-02-05_17:48:26 on domain   3:     .14748 elapsed seconds
Timing for main: time 2016-02-05_17:48:40 on domain   3:     .14630 elapsed seconds
Timing for main: time 2016-02-05_17:48:20 on domain   4:     .19554 elapsed seconds
Timing for main: time 2016-02-05_17:48:40 on domain   4:     .17917 elapsed seconds
Timing for main: time 2016-02-05_17:48:40 on domain   2:    1.52033 elapsed seconds
Timing for main: time 2016-02-05_17:48:53 on domain   3:     .16065 elapsed seconds
Timing for main: time 2016-02-05_17:49:06 on domain   3:     .14584 elapsed seconds
Timing for main: time 2016-02-05_17:49:20 on domain   3:     .14652 elapsed seconds
Timing for main: time 2016-02-05_17:49:00 on domain   4:     .19552 elapsed seconds
Timing for main: time 2016-02-05_17:49:20 on domain   4:     .17923 elapsed seconds
Timing for main: time 2016-02-05_17:49:20 on domain   2:    1.52908 elapsed seconds
Timing for main: time 2016-02-05_17:49:33 on domain   3:     .16103 elapsed seconds
Timing for main: time 2016-02-05_17:49:46 on domain   3:     .14662 elapsed seconds
Timing for main: time 2016-02-05_17:50:00 on domain   3:     .14584 elapsed seconds
Timing for main: time 2016-02-05_17:49:40 on domain   4:     .19522 elapsed seconds
Timing for main: time 2016-02-05_17:50:00 on domain   4:     .18549 elapsed seconds
Timing for main: time 2016-02-05_17:50:00 on domain   2:    1.53646 elapsed seconds
Timing for main: time 2016-02-05_17:50:00 on domain   1:    4.94954 elapsed seconds
Timing for main: time 2016-02-05_17:50:13 on domain   3:     .15997 elapsed seconds
Timing for main: time 2016-02-05_17:50:26 on domain   3:     .14672 elapsed seconds
Timing for main: time 2016-02-05_17:50:40 on domain   3:     .14588 elapsed seconds
Timing for main: time 2016-02-05_17:50:20 on domain   4:     .19717 elapsed seconds
Timing for main: time 2016-02-05_17:50:40 on domain   4:     .17967 elapsed seconds
Timing for main: time 2016-02-05_17:50:40 on domain   2:    1.52280 elapsed seconds
Timing for main: time 2016-02-05_17:50:53 on domain   3:     .16070 elapsed seconds
Timing for main: time 2016-02-05_17:51:06 on domain   3:     .15073 elapsed seconds
Timing for main: time 2016-02-05_17:51:20 on domain   3:     .14781 elapsed seconds
Timing for main: time 2016-02-05_17:51:00 on domain   4:     .19656 elapsed seconds
Timing for main: time 2016-02-05_17:51:20 on domain   4:     .17962 elapsed seconds
Timing for main: time 2016-02-05_17:51:20 on domain   2:    1.53490 elapsed seconds
Timing for main: time 2016-02-05_17:51:33 on domain   3:     .16004 elapsed seconds
Timing for main: time 2016-02-05_17:51:46 on domain   3:     .14613 elapsed seconds
Timing for main: time 2016-02-05_17:52:00 on domain   3:     .14703 elapsed seconds
Timing for main: time 2016-02-05_17:51:40 on domain   4:     .19477 elapsed seconds
Timing for main: time 2016-02-05_17:52:00 on domain   4:     .17836 elapsed seconds
Timing for main: time 2016-02-05_17:52:00 on domain   2:    1.53310 elapsed seconds
Timing for main: time 2016-02-05_17:52:00 on domain   1:    4.95633 elapsed seconds
Timing for main: time 2016-02-05_17:52:13 on domain   3:     .15997 elapsed seconds
Timing for main: time 2016-02-05_17:52:26 on domain   3:     .14486 elapsed seconds
Timing for main: time 2016-02-05_17:52:40 on domain   3:     .15052 elapsed seconds
Timing for main: time 2016-02-05_17:52:20 on domain   4:     .19518 elapsed seconds
Timing for main: time 2016-02-05_17:52:40 on domain   4:     .17876 elapsed seconds
Timing for main: time 2016-02-05_17:52:40 on domain   2:    1.52450 elapsed seconds
Timing for main: time 2016-02-05_17:52:53 on domain   3:     .16051 elapsed seconds
Timing for main: time 2016-02-05_17:53:06 on domain   3:     .14721 elapsed seconds
Timing for main: time 2016-02-05_17:53:20 on domain   3:     .14576 elapsed seconds
Timing for main: time 2016-02-05_17:53:00 on domain   4:     .19491 elapsed seconds
Timing for main: time 2016-02-05_17:53:20 on domain   4:     .17872 elapsed seconds
Timing for main: time 2016-02-05_17:53:20 on domain   2:    1.52842 elapsed seconds
Timing for main: time 2016-02-05_17:53:33 on domain   3:     .16011 elapsed seconds
Timing for main: time 2016-02-05_17:53:46 on domain   3:     .14923 elapsed seconds
Timing for main: time 2016-02-05_17:54:00 on domain   3:     .14653 elapsed seconds
Timing for main: time 2016-02-05_17:53:40 on domain   4:     .19607 elapsed seconds
Timing for main: time 2016-02-05_17:54:00 on domain   4:     .17778 elapsed seconds
Timing for main: time 2016-02-05_17:54:00 on domain   2:    1.53068 elapsed seconds
Timing for main: time 2016-02-05_17:54:00 on domain   1:    4.95155 elapsed seconds
Timing for main: time 2016-02-05_17:54:13 on domain   3:     .16028 elapsed seconds
Timing for main: time 2016-02-05_17:54:26 on domain   3:     .14674 elapsed seconds
Timing for main: time 2016-02-05_17:54:40 on domain   3:     .14624 elapsed seconds
Timing for main: time 2016-02-05_17:54:20 on domain   4:     .19577 elapsed seconds
Timing for main: time 2016-02-05_17:54:40 on domain   4:     .17866 elapsed seconds
Timing for main: time 2016-02-05_17:54:40 on domain   2:    1.52081 elapsed seconds
Timing for main: time 2016-02-05_17:54:53 on domain   3:     .16872 elapsed seconds
Timing for main: time 2016-02-05_17:55:06 on domain   3:     .14565 elapsed seconds
Timing for main: time 2016-02-05_17:55:20 on domain   3:     .14729 elapsed seconds
Timing for main: time 2016-02-05_17:55:00 on domain   4:     .20185 elapsed seconds
Timing for main: time 2016-02-05_17:55:20 on domain   4:     .17886 elapsed seconds
Timing for main: time 2016-02-05_17:55:20 on domain   2:    1.54345 elapsed seconds
Timing for main: time 2016-02-05_17:55:33 on domain   3:     .15976 elapsed seconds
Timing for main: time 2016-02-05_17:55:46 on domain   3:     .14625 elapsed seconds
Timing for main: time 2016-02-05_17:56:00 on domain   3:     .14641 elapsed seconds
Timing for main: time 2016-02-05_17:55:40 on domain   4:     .21486 elapsed seconds
Timing for main: time 2016-02-05_17:56:00 on domain   4:     .17302 elapsed seconds
Timing for main: time 2016-02-05_17:56:00 on domain   2:    1.54703 elapsed seconds
Timing for main: time 2016-02-05_17:56:00 on domain   1:    4.97574 elapsed seconds
Timing for main: time 2016-02-05_17:56:13 on domain   3:     .16067 elapsed seconds
Timing for main: time 2016-02-05_17:56:26 on domain   3:     .14605 elapsed seconds
Timing for main: time 2016-02-05_17:56:40 on domain   3:     .14642 elapsed seconds
Timing for main: time 2016-02-05_17:56:20 on domain   4:     .19641 elapsed seconds
Timing for main: time 2016-02-05_17:56:40 on domain   4:     .17858 elapsed seconds
Timing for main: time 2016-02-05_17:56:40 on domain   2:    1.52186 elapsed seconds
Timing for main: time 2016-02-05_17:56:53 on domain   3:     .16067 elapsed seconds
Timing for main: time 2016-02-05_17:57:06 on domain   3:     .14643 elapsed seconds
Timing for main: time 2016-02-05_17:57:20 on domain   3:     .15106 elapsed seconds
Timing for main: time 2016-02-05_17:57:00 on domain   4:     .19968 elapsed seconds
Timing for main: time 2016-02-05_17:57:20 on domain   4:     .17980 elapsed seconds
Timing for main: time 2016-02-05_17:57:20 on domain   2:    1.54587 elapsed seconds
Timing for main: time 2016-02-05_17:57:33 on domain   3:     .16005 elapsed seconds
Timing for main: time 2016-02-05_17:57:46 on domain   3:     .15506 elapsed seconds
Timing for main: time 2016-02-05_17:58:00 on domain   3:     .14641 elapsed seconds
Timing for main: time 2016-02-05_17:57:40 on domain   4:     .19526 elapsed seconds
Timing for main: time 2016-02-05_17:58:00 on domain   4:     .17670 elapsed seconds
Timing for main: time 2016-02-05_17:58:00 on domain   2:    1.53536 elapsed seconds
Timing for main: time 2016-02-05_17:58:00 on domain   1:    4.96443 elapsed seconds
  photolysis_driver: called for domain  1
Timing for main: time 2016-02-05_17:58:13 on domain   3:     .15909 elapsed seconds
Timing for main: time 2016-02-05_17:58:26 on domain   3:     .14712 elapsed seconds
Timing for main: time 2016-02-05_17:58:40 on domain   3:     .14602 elapsed seconds
Timing for main: time 2016-02-05_17:58:20 on domain   4:     .19536 elapsed seconds
Timing for main: time 2016-02-05_17:58:40 on domain   4:     .18226 elapsed seconds
Timing for main: time 2016-02-05_17:58:40 on domain   2:    1.52741 elapsed seconds
Timing for main: time 2016-02-05_17:58:53 on domain   3:     .15970 elapsed seconds
Timing for main: time 2016-02-05_17:59:06 on domain   3:     .14636 elapsed seconds
Timing for main: time 2016-02-05_17:59:20 on domain   3:     .14614 elapsed seconds
Timing for main: time 2016-02-05_17:59:00 on domain   4:     .19503 elapsed seconds
Timing for main: time 2016-02-05_17:59:20 on domain   4:     .17898 elapsed seconds
Timing for main: time 2016-02-05_17:59:20 on domain   2:    1.60140 elapsed seconds
  photolysis_driver: called for domain  2
Timing for main: time 2016-02-05_17:59:33 on domain   3:     .16032 elapsed seconds
Timing for main: time 2016-02-05_17:59:46 on domain   3:     .14546 elapsed seconds
  photolysis_driver: called for domain  3
Timing for main: time 2016-02-05_18:00:00 on domain   3:     .64801 elapsed seconds
Timing for Writing wrfout_d03_2016-02-05_18:00:00 for domain        3:    3.41811 elapsed seconds
Timing for main: time 2016-02-05_17:59:40 on domain   4:     .19487 elapsed seconds
  photolysis_driver: called for domain  4
Timing for main: time 2016-02-05_18:00:00 on domain   4:     .74901 elapsed seconds
Timing for Writing wrfout_d04_2016-02-05_18:00:00 for domain        4:    3.85023 elapsed seconds
Timing for main: time 2016-02-05_18:00:00 on domain   2:   10.47881 elapsed seconds
Timing for Writing wrfout_d02_2016-02-05_18:00:00 for domain        2:    3.90424 elapsed seconds
Timing for main: time 2016-02-05_18:00:00 on domain   1:   18.19937 elapsed seconds
Timing for Writing wrfout_d01_2016-02-05_18:00:00 for domain        1:    3.16490 elapsed seconds
 d01 2016-02-05_18:00:00 wrf: SUCCESS COMPLETE WRF
