taskid: 0 hostname: p10a51.pbm.ihost.com
  Ntasks in X  10 , ntasks in Y  10
 Setting blank km_opt entries to domain #1 values.
  --> The km_opt entry in the namelist.input is now max_domains.
 Setting blank diff_opt entries to domain #1 values.
  --> The diff_opt entry in the namelist.input is now max_domains.
 --- WARNING: traj_opt is zero, but num_traj is not zero; setting num_traj to zero.
 --- NOTE: hypsometric_opt is 2, setting adjust_heights = F
 --- NOTE: sst_update is 0, setting io_form_auxinput4 = 0 and auxinput4_interval = 0 for all domains
 --- NOTE: sst_update is 0, setting io_form_auxinput4 = 0 and auxinput4_interval = 0 for all domains
 --- NOTE: sst_update is 0, setting io_form_auxinput4 = 0 and auxinput4_interval = 0 for all domains
 --- NOTE: sst_update is 0, setting io_form_auxinput4 = 0 and auxinput4_interval = 0 for all domains
 --- NOTE: grid_fdda is 0 for domain      1, setting gfdda interval and ending time to 0 for that domain.
 --- NOTE: both grid_sfdda and pxlsm_soil_nudge are 0 for domain      1, setting sgfdda interval and ending time to 0 for that domain.
 --- NOTE: obs_nudge_opt is 0 for domain      1, setting obs nudging interval and ending time to 0 for that domain.
 --- NOTE: grid_fdda is 0 for domain      2, setting gfdda interval and ending time to 0 for that domain.
 --- NOTE: both grid_sfdda and pxlsm_soil_nudge are 0 for domain      2, setting sgfdda interval and ending time to 0 for that domain.
 --- NOTE: obs_nudge_opt is 0 for domain      2, setting obs nudging interval and ending time to 0 for that domain.
 --- NOTE: grid_fdda is 0 for domain      3, setting gfdda interval and ending time to 0 for that domain.
 --- NOTE: both grid_sfdda and pxlsm_soil_nudge are 0 for domain      3, setting sgfdda interval and ending time to 0 for that domain.
 --- NOTE: obs_nudge_opt is 0 for domain      3, setting obs nudging interval and ending time to 0 for that domain.
 --- NOTE: grid_fdda is 0 for domain      4, setting gfdda interval and ending time to 0 for that domain.
 --- NOTE: both grid_sfdda and pxlsm_soil_nudge are 0 for domain      4, setting sgfdda interval and ending time to 0 for that domain.
 --- NOTE: obs_nudge_opt is 0 for domain      4, setting obs nudging interval and ending time to 0 for that domain.
 bl_pbl_physics /= 4, implies mfshconv must be 0, resetting
 --- NOTE: num_soil_layers has been set to      4
 WRF V3.6 MODEL
  *************************************
  Parent domain
  ids,ide,jds,jde  1 271 1 181
  ims,ime,jms,jme  -4 34 -4 25
  ips,ipe,jps,jpe  1 27 1 18
  *************************************
 DYNAMICS OPTION: Eulerian Mass Coordinate
    alloc_space_field: domain  1 ,  117661256  bytes allocated
   med_initialdata_input: calling input_input
Timing for processing wrfinput file (stream 0) for domain        1:    4.17826 elapsed seconds
 INPUT LandUse = "USGS"
  LANDUSE TYPE = "USGS" FOUND 33  CATEGORIES 2  SEASONS WATER CATEGORY =  16  SNOW CATEGORY =  24
 INITIALIZE THREE Noah LSM RELATED TABLES
  LANDUSE TYPE = USGS FOUND 27  CATEGORIES
  INPUT SOIL TEXTURE CLASSIFICATION = STAS
  SOIL TEXTURE CLASSIFICATION = STAS FOUND 19  CATEGORIES
 *********************************************************************
 *             PROGRAM:WRF/CHEM V3.6 MODEL
 *                                                                   *
 *    PLEASE REPORT ANY BUGS TO WRF/CHEM HELP at                     *
 *                                                                   *
 *              wrfchemhelp.gsd@noaa.gov                             *
 *                                                                   *
 *********************************************************************
 WARNING: dust option 1 currently works only with the GOCART aerosol option.
 WARNING: sea salt option 1 currently works only with the GOCART aerosol option.
  *************************************
  Nesting domain
  ids,ide,jds,jde  1 361 1 253
  ims,ime,jms,jme  -4 48 -4 36
  ips,ipe,jps,jpe  1 36 1 26
  INTERMEDIATE domain
  ids,ide,jds,jde  74 199 47 136
  ims,ime,jms,jme  69 97 42 67
  ips,ipe,jps,jpe  72 87 45 57
  *************************************
 d01 2016-02-05_12:00:00  alloc_space_field: domain  2 ,  213545948  bytes allocated
 d01 2016-02-05_12:00:00 *** Initializing nest domain # 2 from an input file. ***
 d01 2016-02-05_12:00:00 med_initialdata_input: calling input_input
Timing for processing wrfinput file (stream 0) for domain        2:    6.50379 elapsed seconds
 INPUT LandUse = "USGS"
  LANDUSE TYPE = "USGS" FOUND 33  CATEGORIES 2  SEASONS WATER CATEGORY =  16  SNOW CATEGORY =  24
 INITIALIZE THREE Noah LSM RELATED TABLES
  LANDUSE TYPE = USGS FOUND 27  CATEGORIES
  INPUT SOIL TEXTURE CLASSIFICATION = STAS
  SOIL TEXTURE CLASSIFICATION = STAS FOUND 19  CATEGORIES
 *********************************************************************
 *             PROGRAM:WRF/CHEM V3.6 MODEL
 *                                                                   *
 *    PLEASE REPORT ANY BUGS TO WRF/CHEM HELP at                     *
 *                                                                   *
 *              wrfchemhelp.gsd@noaa.gov                             *
 *                                                                   *
 *********************************************************************
 WARNING: dust option 1 currently works only with the GOCART aerosol option.
 WARNING: sea salt option 1 currently works only with the GOCART aerosol option.
 INPUT LandUse = "USGS"
  LANDUSE TYPE = "USGS" FOUND 33  CATEGORIES 2  SEASONS WATER CATEGORY =  16  SNOW CATEGORY =  24
 INITIALIZE THREE Noah LSM RELATED TABLES
  LANDUSE TYPE = USGS FOUND 27  CATEGORIES
  INPUT SOIL TEXTURE CLASSIFICATION = STAS
  SOIL TEXTURE CLASSIFICATION = STAS FOUND 19  CATEGORIES
 *********************************************************************
 *             PROGRAM:WRF/CHEM V3.6 MODEL
 *                                                                   *
 *    PLEASE REPORT ANY BUGS TO WRF/CHEM HELP at                     *
 *                                                                   *
 *              wrfchemhelp.gsd@noaa.gov                             *
 *                                                                   *
 *********************************************************************
 WARNING: dust option 1 currently works only with the GOCART aerosol option.
 WARNING: sea salt option 1 currently works only with the GOCART aerosol option.
 INPUT LandUse = "USGS"
  LANDUSE TYPE = "USGS" FOUND 33  CATEGORIES 2  SEASONS WATER CATEGORY =  16  SNOW CATEGORY =  24
 INITIALIZE THREE Noah LSM RELATED TABLES
  LANDUSE TYPE = USGS FOUND 27  CATEGORIES
  INPUT SOIL TEXTURE CLASSIFICATION = STAS
  SOIL TEXTURE CLASSIFICATION = STAS FOUND 19  CATEGORIES
 *********************************************************************
 *             PROGRAM:WRF/CHEM V3.6 MODEL
 *                                                                   *
 *    PLEASE REPORT ANY BUGS TO WRF/CHEM HELP at                     *
 *                                                                   *
 *              wrfchemhelp.gsd@noaa.gov                             *
 *                                                                   *
 *********************************************************************
 WARNING: dust option 1 currently works only with the GOCART aerosol option.
 WARNING: sea salt option 1 currently works only with the GOCART aerosol option.
Timing for Writing wrfout_d01_2016-02-05_12:00:00 for domain        1:    1.25359 elapsed seconds
  mediation_integrate: med_read_wrf_chem_emissions: Open file wrfchemi_12z_d01
  HOURLY EMISSIONS UPDATE TIME         .0        .0
 mediation_integrate: med_read_wrf_chem_emissions: Read emissions for time 2016-02-05_12:00:00
 **WARNING** Time in input file not being checked **WARNING**
Timing for processing lateral boundary for domain        1:    2.97319 elapsed seconds
  Tile Strategy is not specified. Assuming 1D-Y
 WRF TILE   1 IS      1 IE     27 JS      1 JE     18
 WRF NUMBER OF TILES =   1
  photolysis_driver: called for domain  1
  *************************************
  Nesting domain
  ids,ide,jds,jde  1 307 1 241
  ims,ime,jms,jme  -4 42 -4 36
  ips,ipe,jps,jpe  1 31 1 24
  INTERMEDIATE domain
  ids,ide,jds,jde  124 231 35 120
  ims,ime,jms,jme  119 145 30 54
  ips,ipe,jps,jpe  122 135 33 44
  *************************************
 d02 2016-02-05_12:00:00  alloc_space_field: domain  3 ,  189959300  bytes allocated
 d02 2016-02-05_12:00:00  alloc_space_field: domain  3 ,  8502300  bytes allocated
 d02 2016-02-05_12:00:00 *** Initializing nest domain # 3 from an input file. ***
 d02 2016-02-05_12:00:00 med_initialdata_input: calling input_input
Timing for processing wrfinput file (stream 0) for domain        3:    5.58115 elapsed seconds
 INPUT LandUse = "USGS"
  LANDUSE TYPE = "USGS" FOUND 33  CATEGORIES 2  SEASONS WATER CATEGORY =  16  SNOW CATEGORY =  24
 INITIALIZE THREE Noah LSM RELATED TABLES
  LANDUSE TYPE = USGS FOUND 27  CATEGORIES
  INPUT SOIL TEXTURE CLASSIFICATION = STAS
  SOIL TEXTURE CLASSIFICATION = STAS FOUND 19  CATEGORIES
 *********************************************************************
 *             PROGRAM:WRF/CHEM V3.6 MODEL
 *                                                                   *
 *    PLEASE REPORT ANY BUGS TO WRF/CHEM HELP at                     *
 *                                                                   *
 *              wrfchemhelp.gsd@noaa.gov                             *
 *                                                                   *
 *********************************************************************
 WARNING: dust option 1 currently works only with the GOCART aerosol option.
 WARNING: sea salt option 1 currently works only with the GOCART aerosol option.
 INPUT LandUse = "USGS"
  LANDUSE TYPE = "USGS" FOUND 33  CATEGORIES 2  SEASONS WATER CATEGORY =  16  SNOW CATEGORY =  24
 INITIALIZE THREE Noah LSM RELATED TABLES
  LANDUSE TYPE = USGS FOUND 27  CATEGORIES
  INPUT SOIL TEXTURE CLASSIFICATION = STAS
  SOIL TEXTURE CLASSIFICATION = STAS FOUND 19  CATEGORIES
 *********************************************************************
 *             PROGRAM:WRF/CHEM V3.6 MODEL
 *                                                                   *
 *    PLEASE REPORT ANY BUGS TO WRF/CHEM HELP at                     *
 *                                                                   *
 *              wrfchemhelp.gsd@noaa.gov                             *
 *                                                                   *
 *********************************************************************
 WARNING: dust option 1 currently works only with the GOCART aerosol option.
 WARNING: sea salt option 1 currently works only with the GOCART aerosol option.
 INPUT LandUse = "USGS"
  LANDUSE TYPE = "USGS" FOUND 33  CATEGORIES 2  SEASONS WATER CATEGORY =  16  SNOW CATEGORY =  24
 INITIALIZE THREE Noah LSM RELATED TABLES
  LANDUSE TYPE = USGS FOUND 27  CATEGORIES
  INPUT SOIL TEXTURE CLASSIFICATION = STAS
  SOIL TEXTURE CLASSIFICATION = STAS FOUND 19  CATEGORIES
 *********************************************************************
 *             PROGRAM:WRF/CHEM V3.6 MODEL
 *                                                                   *
 *    PLEASE REPORT ANY BUGS TO WRF/CHEM HELP at                     *
 *                                                                   *
 *              wrfchemhelp.gsd@noaa.gov                             *
 *                                                                   *
 *********************************************************************
 WARNING: dust option 1 currently works only with the GOCART aerosol option.
 WARNING: sea salt option 1 currently works only with the GOCART aerosol option.
  *************************************
  Nesting domain
  ids,ide,jds,jde  1 217 1 388
  ims,ime,jms,jme  -4 33 -4 51
  ips,ipe,jps,jpe  1 22 1 39
  INTERMEDIATE domain
  ids,ide,jds,jde  225 302 83 217
  ims,ime,jms,jme  220 243 78 107
  ips,ipe,jps,jpe  223 233 81 97
  *************************************
 d02 2016-02-05_12:00:00  alloc_space_field: domain  4 ,  209313404  bytes allocated
 d02 2016-02-05_12:00:00  alloc_space_field: domain  4 ,  9069120  bytes allocated
 d02 2016-02-05_12:00:00 *** Initializing nest domain # 4 from an input file. ***
 d02 2016-02-05_12:00:00 med_initialdata_input: calling input_input
Timing for processing wrfinput file (stream 0) for domain        4:    6.62978 elapsed seconds
 INPUT LandUse = "USGS"
  LANDUSE TYPE = "USGS" FOUND 33  CATEGORIES 2  SEASONS WATER CATEGORY =  16  SNOW CATEGORY =  24
 INITIALIZE THREE Noah LSM RELATED TABLES
  LANDUSE TYPE = USGS FOUND 27  CATEGORIES
  INPUT SOIL TEXTURE CLASSIFICATION = STAS
  SOIL TEXTURE CLASSIFICATION = STAS FOUND 19  CATEGORIES
 *********************************************************************
 *             PROGRAM:WRF/CHEM V3.6 MODEL
 *                                                                   *
 *    PLEASE REPORT ANY BUGS TO WRF/CHEM HELP at                     *
 *                                                                   *
 *              wrfchemhelp.gsd@noaa.gov                             *
 *                                                                   *
 *********************************************************************
 WARNING: dust option 1 currently works only with the GOCART aerosol option.
 WARNING: sea salt option 1 currently works only with the GOCART aerosol option.
 INPUT LandUse = "USGS"
  LANDUSE TYPE = "USGS" FOUND 33  CATEGORIES 2  SEASONS WATER CATEGORY =  16  SNOW CATEGORY =  24
 INITIALIZE THREE Noah LSM RELATED TABLES
  LANDUSE TYPE = USGS FOUND 27  CATEGORIES
  INPUT SOIL TEXTURE CLASSIFICATION = STAS
  SOIL TEXTURE CLASSIFICATION = STAS FOUND 19  CATEGORIES
 *********************************************************************
 *             PROGRAM:WRF/CHEM V3.6 MODEL
 *                                                                   *
 *    PLEASE REPORT ANY BUGS TO WRF/CHEM HELP at                     *
 *                                                                   *
 *              wrfchemhelp.gsd@noaa.gov                             *
 *                                                                   *
 *********************************************************************
 WARNING: dust option 1 currently works only with the GOCART aerosol option.
 WARNING: sea salt option 1 currently works only with the GOCART aerosol option.
 INPUT LandUse = "USGS"
  LANDUSE TYPE = "USGS" FOUND 33  CATEGORIES 2  SEASONS WATER CATEGORY =  16  SNOW CATEGORY =  24
 INITIALIZE THREE Noah LSM RELATED TABLES
  LANDUSE TYPE = USGS FOUND 27  CATEGORIES
  INPUT SOIL TEXTURE CLASSIFICATION = STAS
  SOIL TEXTURE CLASSIFICATION = STAS FOUND 19  CATEGORIES
 *********************************************************************
 *             PROGRAM:WRF/CHEM V3.6 MODEL
 *                                                                   *
 *    PLEASE REPORT ANY BUGS TO WRF/CHEM HELP at                     *
 *                                                                   *
 *              wrfchemhelp.gsd@noaa.gov                             *
 *                                                                   *
 *********************************************************************
 WARNING: dust option 1 currently works only with the GOCART aerosol option.
 WARNING: sea salt option 1 currently works only with the GOCART aerosol option.
Timing for Writing wrfout_d02_2016-02-05_12:00:00 for domain        2:    1.93313 elapsed seconds
  mediation_integrate: med_read_wrf_chem_emissions: Open file wrfchemi_12z_d02
  HOURLY EMISSIONS UPDATE TIME         .0        .0
 mediation_integrate: med_read_wrf_chem_emissions: Read emissions for time 2016-02-05_12:00:00
 **WARNING** Time in input file not being checked **WARNING**
  Tile Strategy is not specified. Assuming 1D-Y
 WRF TILE   1 IS      1 IE     36 JS      1 JE     26
 WRF NUMBER OF TILES =   1
  photolysis_driver: called for domain  2
Timing for Writing wrfout_d03_2016-02-05_12:00:00 for domain        3:    1.69669 elapsed seconds
  mediation_integrate: med_read_wrf_chem_emissions: Open file wrfchemi_12z_d03
  HOURLY EMISSIONS UPDATE TIME         .0        .0
 mediation_integrate: med_read_wrf_chem_emissions: Read emissions for time 2016-02-05_12:00:00
 **WARNING** Time in input file not being checked **WARNING**
  Tile Strategy is not specified. Assuming 1D-Y
 WRF TILE   1 IS      1 IE     31 JS      1 JE     24
 WRF NUMBER OF TILES =   1
  photolysis_driver: called for domain  3
Timing for main: time 2016-02-05_12:00:13 on domain   3:    6.29356 elapsed seconds
Timing for main: time 2016-02-05_12:00:26 on domain   3:     .23355 elapsed seconds
Timing for main: time 2016-02-05_12:00:40 on domain   3:     .27602 elapsed seconds
Timing for Writing wrfout_d04_2016-02-05_12:00:00 for domain        4:    1.79326 elapsed seconds
  mediation_integrate: med_read_wrf_chem_emissions: Open file wrfchemi_12z_d04
  HOURLY EMISSIONS UPDATE TIME         .0        .0
 mediation_integrate: med_read_wrf_chem_emissions: Read emissions for time 2016-02-05_12:00:00
 **WARNING** Time in input file not being checked **WARNING**
  Tile Strategy is not specified. Assuming 1D-Y
 WRF TILE   1 IS      1 IE     22 JS      1 JE     39
 WRF NUMBER OF TILES =   1
  photolysis_driver: called for domain  4
Timing for main: time 2016-02-05_12:00:20 on domain   4:    7.09852 elapsed seconds
Timing for main: time 2016-02-05_12:00:40 on domain   4:     .42823 elapsed seconds
Timing for main: time 2016-02-05_12:00:40 on domain   2:   38.03940 elapsed seconds
Timing for main: time 2016-02-05_12:00:53 on domain   3:     .30387 elapsed seconds
Timing for main: time 2016-02-05_12:01:06 on domain   3:     .28807 elapsed seconds
Timing for main: time 2016-02-05_12:01:20 on domain   3:     .28672 elapsed seconds
Timing for main: time 2016-02-05_12:01:00 on domain   4:     .34333 elapsed seconds
Timing for main: time 2016-02-05_12:01:20 on domain   4:     .32405 elapsed seconds
Timing for main: time 2016-02-05_12:01:20 on domain   2:    2.44729 elapsed seconds
Timing for main: time 2016-02-05_12:01:33 on domain   3:     .28808 elapsed seconds
Timing for main: time 2016-02-05_12:01:46 on domain   3:     .27310 elapsed seconds
Timing for main: time 2016-02-05_12:02:00 on domain   3:     .27383 elapsed seconds
Timing for main: time 2016-02-05_12:01:40 on domain   4:     .34457 elapsed seconds
Timing for main: time 2016-02-05_12:02:00 on domain   4:     .32335 elapsed seconds
Timing for main: time 2016-02-05_12:02:00 on domain   2:    2.43607 elapsed seconds
Timing for main: time 2016-02-05_12:02:00 on domain   1:   59.94323 elapsed seconds
Timing for main: time 2016-02-05_12:02:13 on domain   3:     .28788 elapsed seconds
Timing for main: time 2016-02-05_12:02:26 on domain   3:     .27215 elapsed seconds
Timing for main: time 2016-02-05_12:02:40 on domain   3:     .27385 elapsed seconds
Timing for main: time 2016-02-05_12:02:20 on domain   4:     .35407 elapsed seconds
Timing for main: time 2016-02-05_12:02:40 on domain   4:     .32430 elapsed seconds
Timing for main: time 2016-02-05_12:02:40 on domain   2:    2.46621 elapsed seconds
Timing for main: time 2016-02-05_12:02:53 on domain   3:     .28746 elapsed seconds
Timing for main: time 2016-02-05_12:03:06 on domain   3:     .27335 elapsed seconds
Timing for main: time 2016-02-05_12:03:20 on domain   3:     .27590 elapsed seconds
Timing for main: time 2016-02-05_12:03:00 on domain   4:     .34431 elapsed seconds
Timing for main: time 2016-02-05_12:03:20 on domain   4:     .32366 elapsed seconds
Timing for main: time 2016-02-05_12:03:20 on domain   2:    2.43814 elapsed seconds
Timing for main: time 2016-02-05_12:03:33 on domain   3:     .28772 elapsed seconds
Timing for main: time 2016-02-05_12:03:46 on domain   3:     .27347 elapsed seconds
Timing for main: time 2016-02-05_12:04:00 on domain   3:     .27272 elapsed seconds
Timing for main: time 2016-02-05_12:03:40 on domain   4:     .34389 elapsed seconds
Timing for main: time 2016-02-05_12:04:00 on domain   4:     .32325 elapsed seconds
Timing for main: time 2016-02-05_12:04:00 on domain   2:    2.43509 elapsed seconds
Timing for main: time 2016-02-05_12:04:00 on domain   1:    7.78087 elapsed seconds
Timing for main: time 2016-02-05_12:04:13 on domain   3:     .28800 elapsed seconds
Timing for main: time 2016-02-05_12:04:26 on domain   3:     .27401 elapsed seconds
Timing for main: time 2016-02-05_12:04:40 on domain   3:     .27325 elapsed seconds
Timing for main: time 2016-02-05_12:04:20 on domain   4:     .34344 elapsed seconds
Timing for main: time 2016-02-05_12:04:40 on domain   4:     .32383 elapsed seconds
Timing for main: time 2016-02-05_12:04:40 on domain   2:    2.45515 elapsed seconds
Timing for main: time 2016-02-05_12:04:53 on domain   3:     .28777 elapsed seconds
Timing for main: time 2016-02-05_12:05:06 on domain   3:     .28536 elapsed seconds
Timing for main: time 2016-02-05_12:05:20 on domain   3:     .27314 elapsed seconds
Timing for main: time 2016-02-05_12:05:00 on domain   4:     .36003 elapsed seconds
Timing for main: time 2016-02-05_12:05:20 on domain   4:     .32459 elapsed seconds
Timing for main: time 2016-02-05_12:05:20 on domain   2:    2.48077 elapsed seconds
Timing for main: time 2016-02-05_12:05:33 on domain   3:     .28793 elapsed seconds
Timing for main: time 2016-02-05_12:05:46 on domain   3:     .27366 elapsed seconds
Timing for main: time 2016-02-05_12:06:00 on domain   3:     .27304 elapsed seconds
Timing for main: time 2016-02-05_12:05:40 on domain   4:     .34162 elapsed seconds
Timing for main: time 2016-02-05_12:06:00 on domain   4:     .32444 elapsed seconds
Timing for main: time 2016-02-05_12:06:00 on domain   2:    2.44276 elapsed seconds
Timing for main: time 2016-02-05_12:06:00 on domain   1:    7.86672 elapsed seconds
Timing for main: time 2016-02-05_12:06:13 on domain   3:     .29294 elapsed seconds
Timing for main: time 2016-02-05_12:06:26 on domain   3:     .27272 elapsed seconds
Timing for main: time 2016-02-05_12:06:40 on domain   3:     .27335 elapsed seconds
Timing for main: time 2016-02-05_12:06:20 on domain   4:     .34390 elapsed seconds
Timing for main: time 2016-02-05_12:06:40 on domain   4:     .32519 elapsed seconds
Timing for main: time 2016-02-05_12:06:40 on domain   2:    2.46039 elapsed seconds
Timing for main: time 2016-02-05_12:06:53 on domain   3:     .28958 elapsed seconds
Timing for main: time 2016-02-05_12:07:06 on domain   3:     .27233 elapsed seconds
Timing for main: time 2016-02-05_12:07:20 on domain   3:     .27264 elapsed seconds
Timing for main: time 2016-02-05_12:07:00 on domain   4:     .34685 elapsed seconds
Timing for main: time 2016-02-05_12:07:20 on domain   4:     .32399 elapsed seconds
Timing for main: time 2016-02-05_12:07:20 on domain   2:    2.43910 elapsed seconds
Timing for main: time 2016-02-05_12:07:33 on domain   3:     .28940 elapsed seconds
Timing for main: time 2016-02-05_12:07:46 on domain   3:     .27574 elapsed seconds
Timing for main: time 2016-02-05_12:08:00 on domain   3:     .27334 elapsed seconds
Timing for main: time 2016-02-05_12:07:40 on domain   4:     .34419 elapsed seconds
Timing for main: time 2016-02-05_12:08:00 on domain   4:     .32427 elapsed seconds
Timing for main: time 2016-02-05_12:08:00 on domain   2:    2.44065 elapsed seconds
Timing for main: time 2016-02-05_12:08:00 on domain   1:    7.81638 elapsed seconds
Timing for main: time 2016-02-05_12:08:13 on domain   3:     .28798 elapsed seconds
Timing for main: time 2016-02-05_12:08:26 on domain   3:     .27297 elapsed seconds
Timing for main: time 2016-02-05_12:08:40 on domain   3:     .27602 elapsed seconds
Timing for main: time 2016-02-05_12:08:20 on domain   4:     .34897 elapsed seconds
Timing for main: time 2016-02-05_12:08:40 on domain   4:     .33671 elapsed seconds
Timing for main: time 2016-02-05_12:08:40 on domain   2:    2.47527 elapsed seconds
Timing for main: time 2016-02-05_12:08:53 on domain   3:     .28792 elapsed seconds
Timing for main: time 2016-02-05_12:09:06 on domain   3:     .27260 elapsed seconds
Timing for main: time 2016-02-05_12:09:20 on domain   3:     .27318 elapsed seconds
Timing for main: time 2016-02-05_12:09:00 on domain   4:     .34459 elapsed seconds
Timing for main: time 2016-02-05_12:09:20 on domain   4:     .32437 elapsed seconds
Timing for main: time 2016-02-05_12:09:20 on domain   2:    2.43681 elapsed seconds
Timing for main: time 2016-02-05_12:09:33 on domain   3:     .28803 elapsed seconds
Timing for main: time 2016-02-05_12:09:46 on domain   3:     .27303 elapsed seconds
Timing for main: time 2016-02-05_12:10:00 on domain   3:     .27320 elapsed seconds
Timing for main: time 2016-02-05_12:09:40 on domain   4:     .34637 elapsed seconds
Timing for main: time 2016-02-05_12:10:00 on domain   4:     .33928 elapsed seconds
Timing for main: time 2016-02-05_12:10:00 on domain   2:    2.45439 elapsed seconds
Timing for main: time 2016-02-05_12:10:00 on domain   1:    7.84280 elapsed seconds
Timing for main: time 2016-02-05_12:10:13 on domain   3:     .30094 elapsed seconds
Timing for main: time 2016-02-05_12:10:26 on domain   3:     .27376 elapsed seconds
Timing for main: time 2016-02-05_12:10:40 on domain   3:     .27326 elapsed seconds
Timing for main: time 2016-02-05_12:10:20 on domain   4:     .34543 elapsed seconds
Timing for main: time 2016-02-05_12:10:40 on domain   4:     .32500 elapsed seconds
Timing for main: time 2016-02-05_12:10:40 on domain   2:    2.48657 elapsed seconds
Timing for main: time 2016-02-05_12:10:53 on domain   3:     .28562 elapsed seconds
Timing for main: time 2016-02-05_12:11:06 on domain   3:     .27372 elapsed seconds
Timing for main: time 2016-02-05_12:11:20 on domain   3:     .27291 elapsed seconds
Timing for main: time 2016-02-05_12:11:00 on domain   4:     .34539 elapsed seconds
Timing for main: time 2016-02-05_12:11:20 on domain   4:     .32522 elapsed seconds
Timing for main: time 2016-02-05_12:11:20 on domain   2:    2.43990 elapsed seconds
Timing for main: time 2016-02-05_12:11:33 on domain   3:     .28720 elapsed seconds
Timing for main: time 2016-02-05_12:11:46 on domain   3:     .27383 elapsed seconds
Timing for main: time 2016-02-05_12:12:00 on domain   3:     .27246 elapsed seconds
Timing for main: time 2016-02-05_12:11:40 on domain   4:     .34571 elapsed seconds
Timing for main: time 2016-02-05_12:12:00 on domain   4:     .32676 elapsed seconds
Timing for main: time 2016-02-05_12:12:00 on domain   2:    2.44049 elapsed seconds
Timing for main: time 2016-02-05_12:12:00 on domain   1:    7.85367 elapsed seconds
Timing for main: time 2016-02-05_12:12:13 on domain   3:     .28848 elapsed seconds
Timing for main: time 2016-02-05_12:12:26 on domain   3:     .27230 elapsed seconds
Timing for main: time 2016-02-05_12:12:40 on domain   3:     .27328 elapsed seconds
Timing for main: time 2016-02-05_12:12:20 on domain   4:     .34491 elapsed seconds
Timing for main: time 2016-02-05_12:12:40 on domain   4:     .32601 elapsed seconds
Timing for main: time 2016-02-05_12:12:40 on domain   2:    2.45831 elapsed seconds
Timing for main: time 2016-02-05_12:12:53 on domain   3:     .28808 elapsed seconds
Timing for main: time 2016-02-05_12:13:06 on domain   3:     .27285 elapsed seconds
Timing for main: time 2016-02-05_12:13:20 on domain   3:     .27950 elapsed seconds
Timing for main: time 2016-02-05_12:13:00 on domain   4:     .34525 elapsed seconds
Timing for main: time 2016-02-05_12:13:20 on domain   4:     .32662 elapsed seconds
Timing for main: time 2016-02-05_12:13:20 on domain   2:    2.44821 elapsed seconds
Timing for main: time 2016-02-05_12:13:33 on domain   3:     .28784 elapsed seconds
Timing for main: time 2016-02-05_12:13:46 on domain   3:     .27343 elapsed seconds
Timing for main: time 2016-02-05_12:14:00 on domain   3:     .27269 elapsed seconds
Timing for main: time 2016-02-05_12:13:40 on domain   4:     .34552 elapsed seconds
Timing for main: time 2016-02-05_12:14:00 on domain   4:     .32608 elapsed seconds
Timing for main: time 2016-02-05_12:14:00 on domain   2:    2.44138 elapsed seconds
Timing for main: time 2016-02-05_12:14:00 on domain   1:    7.82707 elapsed seconds
Timing for main: time 2016-02-05_12:14:13 on domain   3:     .28863 elapsed seconds
Timing for main: time 2016-02-05_12:14:26 on domain   3:     .27309 elapsed seconds
Timing for main: time 2016-02-05_12:14:40 on domain   3:     .27466 elapsed seconds
Timing for main: time 2016-02-05_12:14:20 on domain   4:     .34517 elapsed seconds
Timing for main: time 2016-02-05_12:14:40 on domain   4:     .32520 elapsed seconds
Timing for main: time 2016-02-05_12:14:40 on domain   2:    2.46016 elapsed seconds
Timing for main: time 2016-02-05_12:14:53 on domain   3:     .28768 elapsed seconds
Timing for main: time 2016-02-05_12:15:06 on domain   3:     .27245 elapsed seconds
Timing for main: time 2016-02-05_12:15:20 on domain   3:     .28670 elapsed seconds
Timing for main: time 2016-02-05_12:15:00 on domain   4:     .36412 elapsed seconds
Timing for main: time 2016-02-05_12:15:20 on domain   4:     .32544 elapsed seconds
Timing for main: time 2016-02-05_12:15:20 on domain   2:    2.46969 elapsed seconds
Timing for main: time 2016-02-05_12:15:33 on domain   3:     .28796 elapsed seconds
Timing for main: time 2016-02-05_12:15:46 on domain   3:     .27433 elapsed seconds
Timing for main: time 2016-02-05_12:16:00 on domain   3:     .27239 elapsed seconds
Timing for main: time 2016-02-05_12:15:40 on domain   4:     .34505 elapsed seconds
Timing for main: time 2016-02-05_12:16:00 on domain   4:     .32624 elapsed seconds
Timing for main: time 2016-02-05_12:16:00 on domain   2:    2.45644 elapsed seconds
Timing for main: time 2016-02-05_12:16:00 on domain   1:    7.86267 elapsed seconds
Timing for main: time 2016-02-05_12:16:13 on domain   3:     .28794 elapsed seconds
Timing for main: time 2016-02-05_12:16:26 on domain   3:     .27737 elapsed seconds
Timing for main: time 2016-02-05_12:16:40 on domain   3:     .27360 elapsed seconds
Timing for main: time 2016-02-05_12:16:20 on domain   4:     .34593 elapsed seconds
Timing for main: time 2016-02-05_12:16:40 on domain   4:     .32550 elapsed seconds
Timing for main: time 2016-02-05_12:16:40 on domain   2:    2.46357 elapsed seconds
Timing for main: time 2016-02-05_12:16:53 on domain   3:     .28805 elapsed seconds
Timing for main: time 2016-02-05_12:17:06 on domain   3:     .27454 elapsed seconds
Timing for main: time 2016-02-05_12:17:20 on domain   3:     .27186 elapsed seconds
Timing for main: time 2016-02-05_12:17:00 on domain   4:     .34589 elapsed seconds
Timing for main: time 2016-02-05_12:17:20 on domain   4:     .32597 elapsed seconds
Timing for main: time 2016-02-05_12:17:20 on domain   2:    2.43973 elapsed seconds
Timing for main: time 2016-02-05_12:17:33 on domain   3:     .28767 elapsed seconds
Timing for main: time 2016-02-05_12:17:46 on domain   3:     .27501 elapsed seconds
Timing for main: time 2016-02-05_12:18:00 on domain   3:     .27382 elapsed seconds
Timing for main: time 2016-02-05_12:17:40 on domain   4:     .34564 elapsed seconds
Timing for main: time 2016-02-05_12:18:00 on domain   4:     .32528 elapsed seconds
Timing for main: time 2016-02-05_12:18:00 on domain   2:    2.44131 elapsed seconds
Timing for main: time 2016-02-05_12:18:00 on domain   1:    7.83255 elapsed seconds
Timing for main: time 2016-02-05_12:18:13 on domain   3:     .28837 elapsed seconds
Timing for main: time 2016-02-05_12:18:26 on domain   3:     .27273 elapsed seconds
Timing for main: time 2016-02-05_12:18:40 on domain   3:     .27345 elapsed seconds
Timing for main: time 2016-02-05_12:18:20 on domain   4:     .32502 elapsed seconds
Timing for main: time 2016-02-05_12:18:40 on domain   4:     .32572 elapsed seconds
Timing for main: time 2016-02-05_12:18:40 on domain   2:    2.48245 elapsed seconds
Timing for main: time 2016-02-05_12:18:53 on domain   3:     .28747 elapsed seconds
Timing for main: time 2016-02-05_12:19:06 on domain   3:     .27417 elapsed seconds
Timing for main: time 2016-02-05_12:19:20 on domain   3:     .27296 elapsed seconds
Timing for main: time 2016-02-05_12:19:00 on domain   4:     .34536 elapsed seconds
Timing for main: time 2016-02-05_12:19:20 on domain   4:     .32666 elapsed seconds
Timing for main: time 2016-02-05_12:19:20 on domain   2:    2.44100 elapsed seconds
Timing for main: time 2016-02-05_12:19:33 on domain   3:     .28862 elapsed seconds
Timing for main: time 2016-02-05_12:19:46 on domain   3:     .38049 elapsed seconds
Timing for main: time 2016-02-05_12:20:00 on domain   3:     .27530 elapsed seconds
Timing for main: time 2016-02-05_12:19:40 on domain   4:     .34593 elapsed seconds
Timing for main: time 2016-02-05_12:20:00 on domain   4:     .34127 elapsed seconds
Timing for main: time 2016-02-05_12:20:00 on domain   2:    2.56753 elapsed seconds
Timing for main: time 2016-02-05_12:20:00 on domain   1:    7.96737 elapsed seconds
Timing for main: time 2016-02-05_12:20:13 on domain   3:     .28788 elapsed seconds
Timing for main: time 2016-02-05_12:20:26 on domain   3:     .28522 elapsed seconds
Timing for main: time 2016-02-05_12:20:40 on domain   3:     .27292 elapsed seconds
Timing for main: time 2016-02-05_12:20:20 on domain   4:     .34576 elapsed seconds
Timing for main: time 2016-02-05_12:20:40 on domain   4:     .33161 elapsed seconds
Timing for main: time 2016-02-05_12:20:40 on domain   2:    2.47584 elapsed seconds
Timing for main: time 2016-02-05_12:20:53 on domain   3:     .28771 elapsed seconds
Timing for main: time 2016-02-05_12:21:06 on domain   3:     .27214 elapsed seconds
Timing for main: time 2016-02-05_12:21:20 on domain   3:     .27381 elapsed seconds
Timing for main: time 2016-02-05_12:21:00 on domain   4:     .34598 elapsed seconds
Timing for main: time 2016-02-05_12:21:20 on domain   4:     .32609 elapsed seconds
Timing for main: time 2016-02-05_12:21:20 on domain   2:    2.48437 elapsed seconds
Timing for main: time 2016-02-05_12:21:33 on domain   3:     .29219 elapsed seconds
Timing for main: time 2016-02-05_12:21:46 on domain   3:     .27317 elapsed seconds
Timing for main: time 2016-02-05_12:22:00 on domain   3:     .27243 elapsed seconds
Timing for main: time 2016-02-05_12:21:40 on domain   4:     .34532 elapsed seconds
Timing for main: time 2016-02-05_12:22:00 on domain   4:     .32918 elapsed seconds
Timing for main: time 2016-02-05_12:22:00 on domain   2:    2.44672 elapsed seconds
Timing for main: time 2016-02-05_12:22:00 on domain   1:    7.88294 elapsed seconds
Timing for main: time 2016-02-05_12:22:13 on domain   3:     .28761 elapsed seconds
Timing for main: time 2016-02-05_12:22:26 on domain   3:     .27259 elapsed seconds
Timing for main: time 2016-02-05_12:22:40 on domain   3:     .27233 elapsed seconds
Timing for main: time 2016-02-05_12:22:20 on domain   4:     .34638 elapsed seconds
Timing for main: time 2016-02-05_12:22:40 on domain   4:     .32779 elapsed seconds
Timing for main: time 2016-02-05_12:22:40 on domain   2:    2.45992 elapsed seconds
Timing for main: time 2016-02-05_12:22:53 on domain   3:     .28868 elapsed seconds
Timing for main: time 2016-02-05_12:23:06 on domain   3:     .27253 elapsed seconds
Timing for main: time 2016-02-05_12:23:20 on domain   3:     .27328 elapsed seconds
Timing for main: time 2016-02-05_12:23:00 on domain   4:     .34691 elapsed seconds
Timing for main: time 2016-02-05_12:23:20 on domain   4:     .32590 elapsed seconds
Timing for main: time 2016-02-05_12:23:20 on domain   2:    2.44360 elapsed seconds
Timing for main: time 2016-02-05_12:23:33 on domain   3:     .28819 elapsed seconds
Timing for main: time 2016-02-05_12:23:46 on domain   3:     .27349 elapsed seconds
Timing for main: time 2016-02-05_12:24:00 on domain   3:     .27237 elapsed seconds
Timing for main: time 2016-02-05_12:23:40 on domain   4:     .34581 elapsed seconds
Timing for main: time 2016-02-05_12:24:00 on domain   4:     .32716 elapsed seconds
Timing for main: time 2016-02-05_12:24:00 on domain   2:    2.44140 elapsed seconds
Timing for main: time 2016-02-05_12:24:00 on domain   1:    7.83273 elapsed seconds
Timing for main: time 2016-02-05_12:24:13 on domain   3:     .28711 elapsed seconds
Timing for main: time 2016-02-05_12:24:26 on domain   3:     .27270 elapsed seconds
Timing for main: time 2016-02-05_12:24:40 on domain   3:     .27147 elapsed seconds
Timing for main: time 2016-02-05_12:24:20 on domain   4:     .34657 elapsed seconds
Timing for main: time 2016-02-05_12:24:40 on domain   4:     .32656 elapsed seconds
Timing for main: time 2016-02-05_12:24:40 on domain   2:    2.46462 elapsed seconds
Timing for main: time 2016-02-05_12:24:53 on domain   3:     .28750 elapsed seconds
Timing for main: time 2016-02-05_12:25:06 on domain   3:     .27252 elapsed seconds
Timing for main: time 2016-02-05_12:25:20 on domain   3:     .27224 elapsed seconds
Timing for main: time 2016-02-05_12:25:00 on domain   4:     .36268 elapsed seconds
Timing for main: time 2016-02-05_12:25:20 on domain   4:     .32565 elapsed seconds
Timing for main: time 2016-02-05_12:25:20 on domain   2:    2.45776 elapsed seconds
Timing for main: time 2016-02-05_12:25:33 on domain   3:     .30107 elapsed seconds
Timing for main: time 2016-02-05_12:25:46 on domain   3:     .27265 elapsed seconds
Timing for main: time 2016-02-05_12:26:00 on domain   3:     .27265 elapsed seconds
Timing for main: time 2016-02-05_12:25:40 on domain   4:     .34534 elapsed seconds
Timing for main: time 2016-02-05_12:26:00 on domain   4:     .32637 elapsed seconds
Timing for main: time 2016-02-05_12:26:00 on domain   2:    2.45378 elapsed seconds
Timing for main: time 2016-02-05_12:26:00 on domain   1:    7.85336 elapsed seconds
Timing for main: time 2016-02-05_12:26:13 on domain   3:     .28728 elapsed seconds
Timing for main: time 2016-02-05_12:26:26 on domain   3:     .27287 elapsed seconds
Timing for main: time 2016-02-05_12:26:40 on domain   3:     .27244 elapsed seconds
Timing for main: time 2016-02-05_12:26:20 on domain   4:     .34550 elapsed seconds
Timing for main: time 2016-02-05_12:26:40 on domain   4:     .32626 elapsed seconds
Timing for main: time 2016-02-05_12:26:40 on domain   2:    2.47385 elapsed seconds
Timing for main: time 2016-02-05_12:26:53 on domain   3:     .28781 elapsed seconds
Timing for main: time 2016-02-05_12:27:06 on domain   3:     .27098 elapsed seconds
Timing for main: time 2016-02-05_12:27:20 on domain   3:     .27763 elapsed seconds
Timing for main: time 2016-02-05_12:27:00 on domain   4:     .34603 elapsed seconds
Timing for main: time 2016-02-05_12:27:20 on domain   4:     .32834 elapsed seconds
Timing for main: time 2016-02-05_12:27:20 on domain   2:    2.44583 elapsed seconds
Timing for main: time 2016-02-05_12:27:33 on domain   3:     .28796 elapsed seconds
Timing for main: time 2016-02-05_12:27:46 on domain   3:     .27323 elapsed seconds
Timing for main: time 2016-02-05_12:28:00 on domain   3:     .27324 elapsed seconds
Timing for main: time 2016-02-05_12:27:40 on domain   4:     .34552 elapsed seconds
Timing for main: time 2016-02-05_12:28:00 on domain   4:     .32584 elapsed seconds
Timing for main: time 2016-02-05_12:28:00 on domain   2:    2.43944 elapsed seconds
Timing for main: time 2016-02-05_12:28:00 on domain   1:    7.83592 elapsed seconds
  photolysis_driver: called for domain  1
Timing for main: time 2016-02-05_12:28:13 on domain   3:     .28690 elapsed seconds
Timing for main: time 2016-02-05_12:28:26 on domain   3:     .27418 elapsed seconds
Timing for main: time 2016-02-05_12:28:40 on domain   3:     .27286 elapsed seconds
Timing for main: time 2016-02-05_12:28:20 on domain   4:     .34612 elapsed seconds
Timing for main: time 2016-02-05_12:28:40 on domain   4:     .32643 elapsed seconds
Timing for main: time 2016-02-05_12:28:40 on domain   2:    2.46117 elapsed seconds
Timing for main: time 2016-02-05_12:28:53 on domain   3:     .29325 elapsed seconds
Timing for main: time 2016-02-05_12:29:06 on domain   3:     .27305 elapsed seconds
Timing for main: time 2016-02-05_12:29:20 on domain   3:     .27310 elapsed seconds
Timing for main: time 2016-02-05_12:29:00 on domain   4:     .34566 elapsed seconds
Timing for main: time 2016-02-05_12:29:20 on domain   4:     .32655 elapsed seconds
Timing for main: time 2016-02-05_12:29:20 on domain   2:    2.44995 elapsed seconds
  photolysis_driver: called for domain  2
Timing for main: time 2016-02-05_12:29:33 on domain   3:     .28722 elapsed seconds
Timing for main: time 2016-02-05_12:29:46 on domain   3:     .27390 elapsed seconds
  photolysis_driver: called for domain  3
Timing for main: time 2016-02-05_12:30:00 on domain   3:    1.65782 elapsed seconds
Timing for main: time 2016-02-05_12:29:40 on domain   4:     .34784 elapsed seconds
  photolysis_driver: called for domain  4
Timing for main: time 2016-02-05_12:30:00 on domain   4:    1.97372 elapsed seconds
Timing for main: time 2016-02-05_12:30:00 on domain   2:    7.19836 elapsed seconds
Timing for main: time 2016-02-05_12:30:00 on domain   1:   13.63307 elapsed seconds
Timing for main: time 2016-02-05_12:30:13 on domain   3:     .61948 elapsed seconds
Timing for main: time 2016-02-05_12:30:26 on domain   3:     .31881 elapsed seconds
Timing for main: time 2016-02-05_12:30:40 on domain   3:     .28894 elapsed seconds
Timing for main: time 2016-02-05_12:30:20 on domain   4:     .66101 elapsed seconds
Timing for main: time 2016-02-05_12:30:40 on domain   4:     .32395 elapsed seconds
Timing for main: time 2016-02-05_12:30:40 on domain   2:    3.50957 elapsed seconds
Timing for main: time 2016-02-05_12:30:53 on domain   3:     .28558 elapsed seconds
Timing for main: time 2016-02-05_12:31:06 on domain   3:     .27047 elapsed seconds
Timing for main: time 2016-02-05_12:31:20 on domain   3:     .27179 elapsed seconds
Timing for main: time 2016-02-05_12:31:00 on domain   4:     .34393 elapsed seconds
Timing for main: time 2016-02-05_12:31:20 on domain   4:     .32413 elapsed seconds
Timing for main: time 2016-02-05_12:31:20 on domain   2:    2.42883 elapsed seconds
Timing for main: time 2016-02-05_12:31:33 on domain   3:     .28573 elapsed seconds
Timing for main: time 2016-02-05_12:31:46 on domain   3:     .27128 elapsed seconds
Timing for main: time 2016-02-05_12:32:00 on domain   3:     .27074 elapsed seconds
Timing for main: time 2016-02-05_12:31:40 on domain   4:     .34344 elapsed seconds
Timing for main: time 2016-02-05_12:32:00 on domain   4:     .32504 elapsed seconds
Timing for main: time 2016-02-05_12:32:00 on domain   2:    2.44465 elapsed seconds
Timing for main: time 2016-02-05_12:32:00 on domain   1:    9.12022 elapsed seconds
Timing for main: time 2016-02-05_12:32:13 on domain   3:     .28554 elapsed seconds
Timing for main: time 2016-02-05_12:32:26 on domain   3:     .27064 elapsed seconds
Timing for main: time 2016-02-05_12:32:40 on domain   3:     .27101 elapsed seconds
Timing for main: time 2016-02-05_12:32:20 on domain   4:     .34347 elapsed seconds
Timing for main: time 2016-02-05_12:32:40 on domain   4:     .32508 elapsed seconds
Timing for main: time 2016-02-05_12:32:40 on domain   2:    2.44761 elapsed seconds
Timing for main: time 2016-02-05_12:32:53 on domain   3:     .28530 elapsed seconds
Timing for main: time 2016-02-05_12:33:06 on domain   3:     .27239 elapsed seconds
Timing for main: time 2016-02-05_12:33:20 on domain   3:     .27110 elapsed seconds
Timing for main: time 2016-02-05_12:33:00 on domain   4:     .34729 elapsed seconds
Timing for main: time 2016-02-05_12:33:20 on domain   4:     .32372 elapsed seconds
Timing for main: time 2016-02-05_12:33:20 on domain   2:    2.43276 elapsed seconds
Timing for main: time 2016-02-05_12:33:33 on domain   3:     .28580 elapsed seconds
Timing for main: time 2016-02-05_12:33:46 on domain   3:     .27114 elapsed seconds
Timing for main: time 2016-02-05_12:34:00 on domain   3:     .27039 elapsed seconds
Timing for main: time 2016-02-05_12:33:40 on domain   4:     .34337 elapsed seconds
Timing for main: time 2016-02-05_12:34:00 on domain   4:     .32411 elapsed seconds
Timing for main: time 2016-02-05_12:34:00 on domain   2:    2.42935 elapsed seconds
Timing for main: time 2016-02-05_12:34:00 on domain   1:    7.78506 elapsed seconds
Timing for main: time 2016-02-05_12:34:13 on domain   3:     .28536 elapsed seconds
Timing for main: time 2016-02-05_12:34:26 on domain   3:     .27133 elapsed seconds
Timing for main: time 2016-02-05_12:34:40 on domain   3:     .27046 elapsed seconds
Timing for main: time 2016-02-05_12:34:20 on domain   4:     .34372 elapsed seconds
Timing for main: time 2016-02-05_12:34:40 on domain   4:     .32436 elapsed seconds
Timing for main: time 2016-02-05_12:34:40 on domain   2:    2.44729 elapsed seconds
Timing for main: time 2016-02-05_12:34:53 on domain   3:     .28500 elapsed seconds
Timing for main: time 2016-02-05_12:35:06 on domain   3:     .27121 elapsed seconds
Timing for main: time 2016-02-05_12:35:20 on domain   3:     .27677 elapsed seconds
Timing for main: time 2016-02-05_12:35:00 on domain   4:     .35834 elapsed seconds
Timing for main: time 2016-02-05_12:35:20 on domain   4:     .32429 elapsed seconds
Timing for main: time 2016-02-05_12:35:20 on domain   2:    2.44806 elapsed seconds
Timing for main: time 2016-02-05_12:35:33 on domain   3:     .28625 elapsed seconds
Timing for main: time 2016-02-05_12:35:46 on domain   3:     .28469 elapsed seconds
Timing for main: time 2016-02-05_12:36:00 on domain   3:     .27012 elapsed seconds
Timing for main: time 2016-02-05_12:35:40 on domain   4:     .34323 elapsed seconds
Timing for main: time 2016-02-05_12:36:00 on domain   4:     .32548 elapsed seconds
Timing for main: time 2016-02-05_12:36:00 on domain   2:    2.44414 elapsed seconds
Timing for main: time 2016-02-05_12:36:00 on domain   1:    7.82641 elapsed seconds
Timing for main: time 2016-02-05_12:36:13 on domain   3:     .28476 elapsed seconds
Timing for main: time 2016-02-05_12:36:26 on domain   3:     .27561 elapsed seconds
Timing for main: time 2016-02-05_12:36:40 on domain   3:     .27221 elapsed seconds
Timing for main: time 2016-02-05_12:36:20 on domain   4:     .34568 elapsed seconds
Timing for main: time 2016-02-05_12:36:40 on domain   4:     .32355 elapsed seconds
Timing for main: time 2016-02-05_12:36:40 on domain   2:    2.45509 elapsed seconds
Timing for main: time 2016-02-05_12:36:53 on domain   3:     .28547 elapsed seconds
Timing for main: time 2016-02-05_12:37:06 on domain   3:     .27098 elapsed seconds
Timing for main: time 2016-02-05_12:37:20 on domain   3:     .27072 elapsed seconds
Timing for main: time 2016-02-05_12:37:00 on domain   4:     .34387 elapsed seconds
Timing for main: time 2016-02-05_12:37:20 on domain   4:     .32399 elapsed seconds
Timing for main: time 2016-02-05_12:37:20 on domain   2:    2.44584 elapsed seconds
Timing for main: time 2016-02-05_12:37:33 on domain   3:     .28107 elapsed seconds
Timing for main: time 2016-02-05_12:37:46 on domain   3:     .27194 elapsed seconds
Timing for main: time 2016-02-05_12:38:00 on domain   3:     .26968 elapsed seconds
Timing for main: time 2016-02-05_12:37:40 on domain   4:     .34278 elapsed seconds
Timing for main: time 2016-02-05_12:38:00 on domain   4:     .32491 elapsed seconds
Timing for main: time 2016-02-05_12:38:00 on domain   2:    2.43007 elapsed seconds
Timing for main: time 2016-02-05_12:38:00 on domain   1:    7.80665 elapsed seconds
Timing for main: time 2016-02-05_12:38:13 on domain   3:     .28570 elapsed seconds
Timing for main: time 2016-02-05_12:38:26 on domain   3:     .27086 elapsed seconds
Timing for main: time 2016-02-05_12:38:40 on domain   3:     .27081 elapsed seconds
Timing for main: time 2016-02-05_12:38:20 on domain   4:     .34394 elapsed seconds
Timing for main: time 2016-02-05_12:38:40 on domain   4:     .32376 elapsed seconds
Timing for main: time 2016-02-05_12:38:40 on domain   2:    2.44701 elapsed seconds
Timing for main: time 2016-02-05_12:38:53 on domain   3:     .28528 elapsed seconds
Timing for main: time 2016-02-05_12:39:06 on domain   3:     .27044 elapsed seconds
Timing for main: time 2016-02-05_12:39:20 on domain   3:     .27129 elapsed seconds
Timing for main: time 2016-02-05_12:39:00 on domain   4:     .34404 elapsed seconds
Timing for main: time 2016-02-05_12:39:20 on domain   4:     .32557 elapsed seconds
Timing for main: time 2016-02-05_12:39:20 on domain   2:    2.43286 elapsed seconds
Timing for main: time 2016-02-05_12:39:33 on domain   3:     .28769 elapsed seconds
Timing for main: time 2016-02-05_12:39:46 on domain   3:     .27129 elapsed seconds
Timing for main: time 2016-02-05_12:40:00 on domain   3:     .27111 elapsed seconds
Timing for main: time 2016-02-05_12:39:40 on domain   4:     .34372 elapsed seconds
Timing for main: time 2016-02-05_12:40:00 on domain   4:     .33903 elapsed seconds
Timing for main: time 2016-02-05_12:40:00 on domain   2:    2.44788 elapsed seconds
Timing for main: time 2016-02-05_12:40:00 on domain   1:    7.80495 elapsed seconds
Timing for main: time 2016-02-05_12:40:13 on domain   3:     .28604 elapsed seconds
Timing for main: time 2016-02-05_12:40:26 on domain   3:     .27117 elapsed seconds
Timing for main: time 2016-02-05_12:40:40 on domain   3:     .27104 elapsed seconds
Timing for main: time 2016-02-05_12:40:20 on domain   4:     .34438 elapsed seconds
Timing for main: time 2016-02-05_12:40:40 on domain   4:     .32613 elapsed seconds
Timing for main: time 2016-02-05_12:40:40 on domain   2:    2.45284 elapsed seconds
Timing for main: time 2016-02-05_12:40:53 on domain   3:     .29709 elapsed seconds
Timing for main: time 2016-02-05_12:41:06 on domain   3:     .27107 elapsed seconds
Timing for main: time 2016-02-05_12:41:20 on domain   3:     .27136 elapsed seconds
Timing for main: time 2016-02-05_12:41:00 on domain   4:     .34366 elapsed seconds
Timing for main: time 2016-02-05_12:41:20 on domain   4:     .32402 elapsed seconds
Timing for main: time 2016-02-05_12:41:20 on domain   2:    2.44101 elapsed seconds
Timing for main: time 2016-02-05_12:41:33 on domain   3:     .28526 elapsed seconds
Timing for main: time 2016-02-05_12:41:46 on domain   3:     .27118 elapsed seconds
Timing for main: time 2016-02-05_12:42:00 on domain   3:     .27037 elapsed seconds
Timing for main: time 2016-02-05_12:41:40 on domain   4:     .34328 elapsed seconds
Timing for main: time 2016-02-05_12:42:00 on domain   4:     .32568 elapsed seconds
Timing for main: time 2016-02-05_12:42:00 on domain   2:    2.43147 elapsed seconds
Timing for main: time 2016-02-05_12:42:00 on domain   1:    7.81164 elapsed seconds
Timing for main: time 2016-02-05_12:42:13 on domain   3:     .28227 elapsed seconds
Timing for main: time 2016-02-05_12:42:26 on domain   3:     .27228 elapsed seconds
Timing for main: time 2016-02-05_12:42:40 on domain   3:     .27085 elapsed seconds
Timing for main: time 2016-02-05_12:42:20 on domain   4:     .34540 elapsed seconds
Timing for main: time 2016-02-05_12:42:40 on domain   4:     .32377 elapsed seconds
Timing for main: time 2016-02-05_12:42:40 on domain   2:    2.46787 elapsed seconds
Timing for main: time 2016-02-05_12:42:53 on domain   3:     .28626 elapsed seconds
Timing for main: time 2016-02-05_12:43:06 on domain   3:     .27180 elapsed seconds
Timing for main: time 2016-02-05_12:43:20 on domain   3:     .27023 elapsed seconds
Timing for main: time 2016-02-05_12:43:00 on domain   4:     .34385 elapsed seconds
Timing for main: time 2016-02-05_12:43:20 on domain   4:     .32518 elapsed seconds
Timing for main: time 2016-02-05_12:43:20 on domain   2:    2.43452 elapsed seconds
Timing for main: time 2016-02-05_12:43:33 on domain   3:     .28514 elapsed seconds
Timing for main: time 2016-02-05_12:43:46 on domain   3:     .27082 elapsed seconds
Timing for main: time 2016-02-05_12:44:00 on domain   3:     .27104 elapsed seconds
Timing for main: time 2016-02-05_12:43:40 on domain   4:     .34378 elapsed seconds
Timing for main: time 2016-02-05_12:44:00 on domain   4:     .32419 elapsed seconds
Timing for main: time 2016-02-05_12:44:00 on domain   2:    2.43207 elapsed seconds
Timing for main: time 2016-02-05_12:44:00 on domain   1:    7.80989 elapsed seconds
Timing for main: time 2016-02-05_12:44:13 on domain   3:     .28561 elapsed seconds
Timing for main: time 2016-02-05_12:44:26 on domain   3:     .27145 elapsed seconds
Timing for main: time 2016-02-05_12:44:40 on domain   3:     .27097 elapsed seconds
Timing for main: time 2016-02-05_12:44:20 on domain   4:     .34327 elapsed seconds
Timing for main: time 2016-02-05_12:44:40 on domain   4:     .32437 elapsed seconds
Timing for main: time 2016-02-05_12:44:40 on domain   2:    2.44987 elapsed seconds
Timing for main: time 2016-02-05_12:44:53 on domain   3:     .28540 elapsed seconds
Timing for main: time 2016-02-05_12:45:06 on domain   3:     .27073 elapsed seconds
Timing for main: time 2016-02-05_12:45:20 on domain   3:     .27057 elapsed seconds
Timing for main: time 2016-02-05_12:45:00 on domain   4:     .37781 elapsed seconds
Timing for main: time 2016-02-05_12:45:20 on domain   4:     .32394 elapsed seconds
Timing for main: time 2016-02-05_12:45:20 on domain   2:    2.46456 elapsed seconds
Timing for main: time 2016-02-05_12:45:33 on domain   3:     .28550 elapsed seconds
Timing for main: time 2016-02-05_12:45:46 on domain   3:     .27060 elapsed seconds
Timing for main: time 2016-02-05_12:46:00 on domain   3:     .28644 elapsed seconds
Timing for main: time 2016-02-05_12:45:40 on domain   4:     .34423 elapsed seconds
Timing for main: time 2016-02-05_12:46:00 on domain   4:     .32445 elapsed seconds
Timing for main: time 2016-02-05_12:46:00 on domain   2:    2.44700 elapsed seconds
Timing for main: time 2016-02-05_12:46:00 on domain   1:    7.83707 elapsed seconds
Timing for main: time 2016-02-05_12:46:13 on domain   3:     .28576 elapsed seconds
Timing for main: time 2016-02-05_12:46:26 on domain   3:     .27000 elapsed seconds
Timing for main: time 2016-02-05_12:46:40 on domain   3:     .27320 elapsed seconds
Timing for main: time 2016-02-05_12:46:20 on domain   4:     .34377 elapsed seconds
Timing for main: time 2016-02-05_12:46:40 on domain   4:     .32416 elapsed seconds
Timing for main: time 2016-02-05_12:46:40 on domain   2:    2.45101 elapsed seconds
Timing for main: time 2016-02-05_12:46:53 on domain   3:     .28699 elapsed seconds
Timing for main: time 2016-02-05_12:47:06 on domain   3:     .27095 elapsed seconds
Timing for main: time 2016-02-05_12:47:20 on domain   3:     .27015 elapsed seconds
Timing for main: time 2016-02-05_12:47:00 on domain   4:     .34605 elapsed seconds
Timing for main: time 2016-02-05_12:47:20 on domain   4:     .32519 elapsed seconds
Timing for main: time 2016-02-05_12:47:20 on domain   2:    2.43452 elapsed seconds
Timing for main: time 2016-02-05_12:47:33 on domain   3:     .28555 elapsed seconds
Timing for main: time 2016-02-05_12:47:46 on domain   3:     .27077 elapsed seconds
Timing for main: time 2016-02-05_12:48:00 on domain   3:     .27077 elapsed seconds
Timing for main: time 2016-02-05_12:47:40 on domain   4:     .34417 elapsed seconds
Timing for main: time 2016-02-05_12:48:00 on domain   4:     .32438 elapsed seconds
Timing for main: time 2016-02-05_12:48:00 on domain   2:    2.44828 elapsed seconds
Timing for main: time 2016-02-05_12:48:00 on domain   1:    7.82046 elapsed seconds
Timing for main: time 2016-02-05_12:48:13 on domain   3:     .28546 elapsed seconds
Timing for main: time 2016-02-05_12:48:26 on domain   3:     .27364 elapsed seconds
Timing for main: time 2016-02-05_12:48:40 on domain   3:     .27008 elapsed seconds
Timing for main: time 2016-02-05_12:48:20 on domain   4:     .33992 elapsed seconds
Timing for main: time 2016-02-05_12:48:40 on domain   4:     .41352 elapsed seconds
Timing for main: time 2016-02-05_12:48:40 on domain   2:    2.53720 elapsed seconds
Timing for main: time 2016-02-05_12:48:53 on domain   3:     .28553 elapsed seconds
Timing for main: time 2016-02-05_12:49:06 on domain   3:     .27347 elapsed seconds
Timing for main: time 2016-02-05_12:49:20 on domain   3:     .27081 elapsed seconds
Timing for main: time 2016-02-05_12:49:00 on domain   4:     .34383 elapsed seconds
Timing for main: time 2016-02-05_12:49:20 on domain   4:     .32460 elapsed seconds
Timing for main: time 2016-02-05_12:49:20 on domain   2:    2.43408 elapsed seconds
Timing for main: time 2016-02-05_12:49:33 on domain   3:     .29253 elapsed seconds
Timing for main: time 2016-02-05_12:49:46 on domain   3:     .26985 elapsed seconds
Timing for main: time 2016-02-05_12:50:00 on domain   3:     .31890 elapsed seconds
Timing for main: time 2016-02-05_12:49:40 on domain   4:     .34530 elapsed seconds
Timing for main: time 2016-02-05_12:50:00 on domain   4:     .33668 elapsed seconds
Timing for main: time 2016-02-05_12:50:00 on domain   2:    2.51122 elapsed seconds
Timing for main: time 2016-02-05_12:50:00 on domain   1:    7.95854 elapsed seconds
Timing for main: time 2016-02-05_12:50:13 on domain   3:     .28455 elapsed seconds
Timing for main: time 2016-02-05_12:50:26 on domain   3:     .27041 elapsed seconds
Timing for main: time 2016-02-05_12:50:40 on domain   3:     .27337 elapsed seconds
Timing for main: time 2016-02-05_12:50:20 on domain   4:     .34409 elapsed seconds
Timing for main: time 2016-02-05_12:50:40 on domain   4:     .32469 elapsed seconds
Timing for main: time 2016-02-05_12:50:40 on domain   2:    2.45181 elapsed seconds
Timing for main: time 2016-02-05_12:50:53 on domain   3:     .28545 elapsed seconds
Timing for main: time 2016-02-05_12:51:06 on domain   3:     .28374 elapsed seconds
Timing for main: time 2016-02-05_12:51:20 on domain   3:     .27187 elapsed seconds
Timing for main: time 2016-02-05_12:51:00 on domain   4:     .37631 elapsed seconds
Timing for main: time 2016-02-05_12:51:20 on domain   4:     .38002 elapsed seconds
Timing for main: time 2016-02-05_12:51:20 on domain   2:    2.53299 elapsed seconds
Timing for main: time 2016-02-05_12:51:33 on domain   3:     .29575 elapsed seconds
Timing for main: time 2016-02-05_12:51:46 on domain   3:     .27055 elapsed seconds
Timing for main: time 2016-02-05_12:52:00 on domain   3:     .27384 elapsed seconds
Timing for main: time 2016-02-05_12:51:40 on domain   4:     .34465 elapsed seconds
Timing for main: time 2016-02-05_12:52:00 on domain   4:     .32555 elapsed seconds
Timing for main: time 2016-02-05_12:52:00 on domain   2:    2.44738 elapsed seconds
Timing for main: time 2016-02-05_12:52:00 on domain   1:    7.90819 elapsed seconds
Timing for main: time 2016-02-05_12:52:13 on domain   3:     .28535 elapsed seconds
Timing for main: time 2016-02-05_12:52:26 on domain   3:     .27059 elapsed seconds
Timing for main: time 2016-02-05_12:52:40 on domain   3:     .27240 elapsed seconds
Timing for main: time 2016-02-05_12:52:20 on domain   4:     .34347 elapsed seconds
Timing for main: time 2016-02-05_12:52:40 on domain   4:     .32519 elapsed seconds
Timing for main: time 2016-02-05_12:52:40 on domain   2:    2.45120 elapsed seconds
Timing for main: time 2016-02-05_12:52:53 on domain   3:     .28771 elapsed seconds
Timing for main: time 2016-02-05_12:53:06 on domain   3:     .27031 elapsed seconds
Timing for main: time 2016-02-05_12:53:20 on domain   3:     .27064 elapsed seconds
Timing for main: time 2016-02-05_12:53:00 on domain   4:     .34426 elapsed seconds
Timing for main: time 2016-02-05_12:53:20 on domain   4:     .32425 elapsed seconds
Timing for main: time 2016-02-05_12:53:20 on domain   2:    2.44717 elapsed seconds
Timing for main: time 2016-02-05_12:53:33 on domain   3:     .28497 elapsed seconds
Timing for main: time 2016-02-05_12:53:46 on domain   3:     .27437 elapsed seconds
Timing for main: time 2016-02-05_12:54:00 on domain   3:     .27055 elapsed seconds
Timing for main: time 2016-02-05_12:53:40 on domain   4:     .34498 elapsed seconds
Timing for main: time 2016-02-05_12:54:00 on domain   4:     .32506 elapsed seconds
Timing for main: time 2016-02-05_12:54:00 on domain   2:    2.43430 elapsed seconds
Timing for main: time 2016-02-05_12:54:00 on domain   1:    7.81934 elapsed seconds
Timing for main: time 2016-02-05_12:54:13 on domain   3:     .28510 elapsed seconds
Timing for main: time 2016-02-05_12:54:26 on domain   3:     .27042 elapsed seconds
Timing for main: time 2016-02-05_12:54:40 on domain   3:     .27182 elapsed seconds
Timing for main: time 2016-02-05_12:54:20 on domain   4:     .34491 elapsed seconds
Timing for main: time 2016-02-05_12:54:40 on domain   4:     .32474 elapsed seconds
Timing for main: time 2016-02-05_12:54:40 on domain   2:    2.45120 elapsed seconds
Timing for main: time 2016-02-05_12:54:53 on domain   3:     .28660 elapsed seconds
Timing for main: time 2016-02-05_12:55:06 on domain   3:     .27066 elapsed seconds
Timing for main: time 2016-02-05_12:55:20 on domain   3:     .27035 elapsed seconds
Timing for main: time 2016-02-05_12:55:00 on domain   4:     .35847 elapsed seconds
Timing for main: time 2016-02-05_12:55:20 on domain   4:     .32482 elapsed seconds
Timing for main: time 2016-02-05_12:55:20 on domain   2:    2.44484 elapsed seconds
Timing for main: time 2016-02-05_12:55:33 on domain   3:     .28565 elapsed seconds
Timing for main: time 2016-02-05_12:55:46 on domain   3:     .27109 elapsed seconds
Timing for main: time 2016-02-05_12:56:00 on domain   3:     .27141 elapsed seconds
Timing for main: time 2016-02-05_12:55:40 on domain   4:     .34673 elapsed seconds
Timing for main: time 2016-02-05_12:56:00 on domain   4:     .32501 elapsed seconds
Timing for main: time 2016-02-05_12:56:00 on domain   2:    2.43497 elapsed seconds
Timing for main: time 2016-02-05_12:56:00 on domain   1:    7.80657 elapsed seconds
Timing for main: time 2016-02-05_12:56:13 on domain   3:     .29845 elapsed seconds
Timing for main: time 2016-02-05_12:56:26 on domain   3:     .27045 elapsed seconds
Timing for main: time 2016-02-05_12:56:40 on domain   3:     .27009 elapsed seconds
Timing for main: time 2016-02-05_12:56:20 on domain   4:     .34388 elapsed seconds
Timing for main: time 2016-02-05_12:56:40 on domain   4:     .32454 elapsed seconds
Timing for main: time 2016-02-05_12:56:40 on domain   2:    2.46137 elapsed seconds
Timing for main: time 2016-02-05_12:56:53 on domain   3:     .28578 elapsed seconds
Timing for main: time 2016-02-05_12:57:06 on domain   3:     .27017 elapsed seconds
Timing for main: time 2016-02-05_12:57:20 on domain   3:     .27145 elapsed seconds
Timing for main: time 2016-02-05_12:57:00 on domain   4:     .34424 elapsed seconds
Timing for main: time 2016-02-05_12:57:20 on domain   4:     .32459 elapsed seconds
Timing for main: time 2016-02-05_12:57:20 on domain   2:    2.43089 elapsed seconds
Timing for main: time 2016-02-05_12:57:33 on domain   3:     .28606 elapsed seconds
Timing for main: time 2016-02-05_12:57:46 on domain   3:     .27065 elapsed seconds
Timing for main: time 2016-02-05_12:58:00 on domain   3:     .27104 elapsed seconds
Timing for main: time 2016-02-05_12:57:40 on domain   4:     .34333 elapsed seconds
Timing for main: time 2016-02-05_12:58:00 on domain   4:     .32472 elapsed seconds
Timing for main: time 2016-02-05_12:58:00 on domain   2:    2.43125 elapsed seconds
Timing for main: time 2016-02-05_12:58:00 on domain   1:    7.80044 elapsed seconds
  photolysis_driver: called for domain  1
Timing for main: time 2016-02-05_12:58:13 on domain   3:     .28558 elapsed seconds
Timing for main: time 2016-02-05_12:58:26 on domain   3:     .27089 elapsed seconds
Timing for main: time 2016-02-05_12:58:40 on domain   3:     .27476 elapsed seconds
Timing for main: time 2016-02-05_12:58:20 on domain   4:     .34410 elapsed seconds
Timing for main: time 2016-02-05_12:58:40 on domain   4:     .32515 elapsed seconds
Timing for main: time 2016-02-05_12:58:40 on domain   2:    2.47166 elapsed seconds
Timing for main: time 2016-02-05_12:58:53 on domain   3:     .28556 elapsed seconds
Timing for main: time 2016-02-05_12:59:06 on domain   3:     .27030 elapsed seconds
Timing for main: time 2016-02-05_12:59:20 on domain   3:     .27066 elapsed seconds
Timing for main: time 2016-02-05_12:59:00 on domain   4:     .34405 elapsed seconds
Timing for main: time 2016-02-05_12:59:20 on domain   4:     .32441 elapsed seconds
Timing for main: time 2016-02-05_12:59:20 on domain   2:    2.42982 elapsed seconds
  photolysis_driver: called for domain  2
Timing for main: time 2016-02-05_12:59:33 on domain   3:     .28609 elapsed seconds
Timing for main: time 2016-02-05_12:59:46 on domain   3:     .27051 elapsed seconds
  photolysis_driver: called for domain  3
Timing for main: time 2016-02-05_13:00:00 on domain   3:    1.65914 elapsed seconds
Timing for main: time 2016-02-05_12:59:40 on domain   4:     .34474 elapsed seconds
  photolysis_driver: called for domain  4
Timing for main: time 2016-02-05_13:00:00 on domain   4:    1.92551 elapsed seconds
Timing for main: time 2016-02-05_13:00:00 on domain   2:    7.14628 elapsed seconds
Timing for main: time 2016-02-05_13:00:00 on domain   1:   13.56562 elapsed seconds
Timing for Writing wrfout_d01_2016-02-05_13:00:00 for domain        1:    1.25694 elapsed seconds
  HOURLY EMISSIONS UPDATE TIME     3600.0        .0
 mediation_integrate: med_read_wrf_chem_emissions: Read emissions for time 2016-02-05_13:00:00
 **WARNING** Time in input file not being checked **WARNING**
Timing for Writing wrfout_d02_2016-02-05_13:00:00 for domain        2:    1.82315 elapsed seconds
Timing for Writing wrfout_d03_2016-02-05_13:00:00 for domain        3:    2.42395 elapsed seconds
Timing for main: time 2016-02-05_13:00:13 on domain   3:    3.00912 elapsed seconds
Timing for main: time 2016-02-05_13:00:26 on domain   3:     .30095 elapsed seconds
Timing for main: time 2016-02-05_13:00:40 on domain   3:     .29449 elapsed seconds
Timing for Writing wrfout_d04_2016-02-05_13:00:00 for domain        4:    1.83045 elapsed seconds
Timing for main: time 2016-02-05_13:00:20 on domain   4:    2.52436 elapsed seconds
Timing for main: time 2016-02-05_13:00:40 on domain   4:     .35647 elapsed seconds
Timing for main: time 2016-02-05_13:00:40 on domain   2:    9.66806 elapsed seconds
Timing for main: time 2016-02-05_13:00:53 on domain   3:     .28996 elapsed seconds
Timing for main: time 2016-02-05_13:01:06 on domain   3:     .27094 elapsed seconds
Timing for main: time 2016-02-05_13:01:20 on domain   3:     .28339 elapsed seconds
Timing for main: time 2016-02-05_13:01:00 on domain   4:     .34354 elapsed seconds
Timing for main: time 2016-02-05_13:01:20 on domain   4:     .32487 elapsed seconds
Timing for main: time 2016-02-05_13:01:20 on domain   2:    2.49948 elapsed seconds
Timing for main: time 2016-02-05_13:01:33 on domain   3:     .28565 elapsed seconds
Timing for main: time 2016-02-05_13:01:46 on domain   3:     .27090 elapsed seconds
Timing for main: time 2016-02-05_13:02:00 on domain   3:     .27402 elapsed seconds
Timing for main: time 2016-02-05_13:01:40 on domain   4:     .34401 elapsed seconds
Timing for main: time 2016-02-05_13:02:00 on domain   4:     .32428 elapsed seconds
Timing for main: time 2016-02-05_13:02:00 on domain   2:    2.43271 elapsed seconds
Timing for main: time 2016-02-05_13:02:00 on domain   1:   18.06958 elapsed seconds
Timing for main: time 2016-02-05_13:02:13 on domain   3:     .28591 elapsed seconds
Timing for main: time 2016-02-05_13:02:26 on domain   3:     .27055 elapsed seconds
Timing for main: time 2016-02-05_13:02:40 on domain   3:     .27087 elapsed seconds
Timing for main: time 2016-02-05_13:02:20 on domain   4:     .34649 elapsed seconds
Timing for main: time 2016-02-05_13:02:40 on domain   4:     .32397 elapsed seconds
Timing for main: time 2016-02-05_13:02:40 on domain   2:    2.44878 elapsed seconds
Timing for main: time 2016-02-05_13:02:53 on domain   3:     .28529 elapsed seconds
Timing for main: time 2016-02-05_13:03:06 on domain   3:     .27754 elapsed seconds
Timing for main: time 2016-02-05_13:03:20 on domain   3:     .26956 elapsed seconds
Timing for main: time 2016-02-05_13:03:00 on domain   4:     .34509 elapsed seconds
Timing for main: time 2016-02-05_13:03:20 on domain   4:     .32500 elapsed seconds
Timing for main: time 2016-02-05_13:03:20 on domain   2:    2.43662 elapsed seconds
Timing for main: time 2016-02-05_13:03:33 on domain   3:     .28572 elapsed seconds
Timing for main: time 2016-02-05_13:03:46 on domain   3:     .27066 elapsed seconds
Timing for main: time 2016-02-05_13:04:00 on domain   3:     .27100 elapsed seconds
Timing for main: time 2016-02-05_13:03:40 on domain   4:     .34406 elapsed seconds
Timing for main: time 2016-02-05_13:04:00 on domain   4:     .32497 elapsed seconds
Timing for main: time 2016-02-05_13:04:00 on domain   2:    2.44575 elapsed seconds
Timing for main: time 2016-02-05_13:04:00 on domain   1:    7.81008 elapsed seconds
Timing for main: time 2016-02-05_13:04:13 on domain   3:     .28575 elapsed seconds
Timing for main: time 2016-02-05_13:04:26 on domain   3:     .27093 elapsed seconds
Timing for main: time 2016-02-05_13:04:40 on domain   3:     .27108 elapsed seconds
Timing for main: time 2016-02-05_13:04:20 on domain   4:     .34429 elapsed seconds
Timing for main: time 2016-02-05_13:04:40 on domain   4:     .32552 elapsed seconds
Timing for main: time 2016-02-05_13:04:40 on domain   2:    2.45906 elapsed seconds
Timing for main: time 2016-02-05_13:04:53 on domain   3:     .28591 elapsed seconds
Timing for main: time 2016-02-05_13:05:06 on domain   3:     .27113 elapsed seconds
Timing for main: time 2016-02-05_13:05:20 on domain   3:     .27160 elapsed seconds
Timing for main: time 2016-02-05_13:05:00 on domain   4:     .35872 elapsed seconds
Timing for main: time 2016-02-05_13:05:20 on domain   4:     .32375 elapsed seconds
Timing for main: time 2016-02-05_13:05:20 on domain   2:    2.44648 elapsed seconds
Timing for main: time 2016-02-05_13:05:33 on domain   3:     .28543 elapsed seconds
Timing for main: time 2016-02-05_13:05:46 on domain   3:     .27066 elapsed seconds
Timing for main: time 2016-02-05_13:06:00 on domain   3:     .27257 elapsed seconds
Timing for main: time 2016-02-05_13:05:40 on domain   4:     .34416 elapsed seconds
Timing for main: time 2016-02-05_13:06:00 on domain   4:     .32374 elapsed seconds
Timing for main: time 2016-02-05_13:06:00 on domain   2:    2.43263 elapsed seconds
Timing for main: time 2016-02-05_13:06:00 on domain   1:    7.82506 elapsed seconds
Timing for main: time 2016-02-05_13:06:13 on domain   3:     .28276 elapsed seconds
Timing for main: time 2016-02-05_13:06:26 on domain   3:     .28325 elapsed seconds
Timing for main: time 2016-02-05_13:06:40 on domain   3:     .27077 elapsed seconds
Timing for main: time 2016-02-05_13:06:20 on domain   4:     .34357 elapsed seconds
Timing for main: time 2016-02-05_13:06:40 on domain   4:     .32421 elapsed seconds
Timing for main: time 2016-02-05_13:06:40 on domain   2:    2.46074 elapsed seconds
Timing for main: time 2016-02-05_13:06:53 on domain   3:     .28608 elapsed seconds
Timing for main: time 2016-02-05_13:07:06 on domain   3:     .27088 elapsed seconds
Timing for main: time 2016-02-05_13:07:20 on domain   3:     .27088 elapsed seconds
Timing for main: time 2016-02-05_13:07:00 on domain   4:     .34443 elapsed seconds
Timing for main: time 2016-02-05_13:07:20 on domain   4:     .32467 elapsed seconds
Timing for main: time 2016-02-05_13:07:20 on domain   2:    2.43206 elapsed seconds
Timing for main: time 2016-02-05_13:07:33 on domain   3:     .28555 elapsed seconds
Timing for main: time 2016-02-05_13:07:46 on domain   3:     .27119 elapsed seconds
Timing for main: time 2016-02-05_13:08:00 on domain   3:     .27094 elapsed seconds
Timing for main: time 2016-02-05_13:07:40 on domain   4:     .34396 elapsed seconds
Timing for main: time 2016-02-05_13:08:00 on domain   4:     .32424 elapsed seconds
Timing for main: time 2016-02-05_13:08:00 on domain   2:    2.43146 elapsed seconds
Timing for main: time 2016-02-05_13:08:00 on domain   1:    7.80052 elapsed seconds
Timing for main: time 2016-02-05_13:08:13 on domain   3:     .28611 elapsed seconds
Timing for main: time 2016-02-05_13:08:26 on domain   3:     .27137 elapsed seconds
Timing for main: time 2016-02-05_13:08:40 on domain   3:     .27490 elapsed seconds
Timing for main: time 2016-02-05_13:08:20 on domain   4:     .34468 elapsed seconds
Timing for main: time 2016-02-05_13:08:40 on domain   4:     .32422 elapsed seconds
Timing for main: time 2016-02-05_13:08:40 on domain   2:    2.45491 elapsed seconds
Timing for main: time 2016-02-05_13:08:53 on domain   3:     .28572 elapsed seconds
Timing for main: time 2016-02-05_13:09:06 on domain   3:     .27092 elapsed seconds
Timing for main: time 2016-02-05_13:09:20 on domain   3:     .27144 elapsed seconds
Timing for main: time 2016-02-05_13:09:00 on domain   4:     .34335 elapsed seconds
Timing for main: time 2016-02-05_13:09:20 on domain   4:     .32482 elapsed seconds
Timing for main: time 2016-02-05_13:09:20 on domain   2:    2.45108 elapsed seconds
Timing for main: time 2016-02-05_13:09:33 on domain   3:     .28569 elapsed seconds
Timing for main: time 2016-02-05_13:09:46 on domain   3:     .27116 elapsed seconds
Timing for main: time 2016-02-05_13:10:00 on domain   3:     .27312 elapsed seconds
Timing for main: time 2016-02-05_13:09:40 on domain   4:     .34488 elapsed seconds
Timing for main: time 2016-02-05_13:10:00 on domain   4:     .33942 elapsed seconds
Timing for main: time 2016-02-05_13:10:00 on domain   2:    2.44837 elapsed seconds
Timing for main: time 2016-02-05_13:10:00 on domain   1:    7.83059 elapsed seconds
Timing for main: time 2016-02-05_13:10:13 on domain   3:     .28545 elapsed seconds
Timing for main: time 2016-02-05_13:10:26 on domain   3:     .27166 elapsed seconds
Timing for main: time 2016-02-05_13:10:40 on domain   3:     .27292 elapsed seconds
Timing for main: time 2016-02-05_13:10:20 on domain   4:     .34326 elapsed seconds
Timing for main: time 2016-02-05_13:10:40 on domain   4:     .32446 elapsed seconds
Timing for main: time 2016-02-05_13:10:40 on domain   2:    2.45115 elapsed seconds
Timing for main: time 2016-02-05_13:10:53 on domain   3:     .28527 elapsed seconds
Timing for main: time 2016-02-05_13:11:06 on domain   3:     .27380 elapsed seconds
Timing for main: time 2016-02-05_13:11:20 on domain   3:     .27120 elapsed seconds
Timing for main: time 2016-02-05_13:11:00 on domain   4:     .34398 elapsed seconds
Timing for main: time 2016-02-05_13:11:20 on domain   4:     .32367 elapsed seconds
Timing for main: time 2016-02-05_13:11:20 on domain   2:    2.43224 elapsed seconds
Timing for main: time 2016-02-05_13:11:33 on domain   3:     .29838 elapsed seconds
Timing for main: time 2016-02-05_13:11:46 on domain   3:     .27138 elapsed seconds
Timing for main: time 2016-02-05_13:12:00 on domain   3:     .27099 elapsed seconds
Timing for main: time 2016-02-05_13:11:40 on domain   4:     .36873 elapsed seconds
Timing for main: time 2016-02-05_13:12:00 on domain   4:     .32417 elapsed seconds
Timing for main: time 2016-02-05_13:12:00 on domain   2:    2.46792 elapsed seconds
Timing for main: time 2016-02-05_13:12:00 on domain   1:    7.83844 elapsed seconds
Timing for main: time 2016-02-05_13:12:13 on domain   3:     .28523 elapsed seconds
Timing for main: time 2016-02-05_13:12:26 on domain   3:     .27153 elapsed seconds
Timing for main: time 2016-02-05_13:12:40 on domain   3:     .27035 elapsed seconds
Timing for main: time 2016-02-05_13:12:20 on domain   4:     .34431 elapsed seconds
Timing for main: time 2016-02-05_13:12:40 on domain   4:     .32507 elapsed seconds
Timing for main: time 2016-02-05_13:12:40 on domain   2:    2.45109 elapsed seconds
Timing for main: time 2016-02-05_13:12:53 on domain   3:     .28553 elapsed seconds
Timing for main: time 2016-02-05_13:13:06 on domain   3:     .27130 elapsed seconds
Timing for main: time 2016-02-05_13:13:20 on domain   3:     .27205 elapsed seconds
Timing for main: time 2016-02-05_13:13:00 on domain   4:     .34369 elapsed seconds
Timing for main: time 2016-02-05_13:13:20 on domain   4:     .32412 elapsed seconds
Timing for main: time 2016-02-05_13:13:20 on domain   2:    2.43254 elapsed seconds
Timing for main: time 2016-02-05_13:13:33 on domain   3:     .28566 elapsed seconds
Timing for main: time 2016-02-05_13:13:46 on domain   3:     .27062 elapsed seconds
Timing for main: time 2016-02-05_13:14:00 on domain   3:     .27204 elapsed seconds
Timing for main: time 2016-02-05_13:13:40 on domain   4:     .34519 elapsed seconds
Timing for main: time 2016-02-05_13:14:00 on domain   4:     .32506 elapsed seconds
Timing for main: time 2016-02-05_13:14:00 on domain   2:    2.43390 elapsed seconds
Timing for main: time 2016-02-05_13:14:00 on domain   1:    7.79396 elapsed seconds
Timing for main: time 2016-02-05_13:14:13 on domain   3:     .28677 elapsed seconds
Timing for main: time 2016-02-05_13:14:26 on domain   3:     .27027 elapsed seconds
Timing for main: time 2016-02-05_13:14:40 on domain   3:     .27143 elapsed seconds
Timing for main: time 2016-02-05_13:14:20 on domain   4:     .34332 elapsed seconds
Timing for main: time 2016-02-05_13:14:40 on domain   4:     .32428 elapsed seconds
Timing for main: time 2016-02-05_13:14:40 on domain   2:    2.46516 elapsed seconds
Timing for main: time 2016-02-05_13:14:53 on domain   3:     .28763 elapsed seconds
Timing for main: time 2016-02-05_13:15:06 on domain   3:     .26978 elapsed seconds
Timing for main: time 2016-02-05_13:15:20 on domain   3:     .27198 elapsed seconds
Timing for main: time 2016-02-05_13:15:00 on domain   4:     .35857 elapsed seconds
Timing for main: time 2016-02-05_13:15:20 on domain   4:     .32510 elapsed seconds
Timing for main: time 2016-02-05_13:15:20 on domain   2:    2.44757 elapsed seconds
Timing for main: time 2016-02-05_13:15:33 on domain   3:     .28470 elapsed seconds
Timing for main: time 2016-02-05_13:15:46 on domain   3:     .27294 elapsed seconds
Timing for main: time 2016-02-05_13:16:00 on domain   3:     .27113 elapsed seconds
Timing for main: time 2016-02-05_13:15:40 on domain   4:     .34364 elapsed seconds
Timing for main: time 2016-02-05_13:16:00 on domain   4:     .32422 elapsed seconds
Timing for main: time 2016-02-05_13:16:00 on domain   2:    2.43164 elapsed seconds
Timing for main: time 2016-02-05_13:16:00 on domain   1:    7.82023 elapsed seconds
Timing for main: time 2016-02-05_13:16:13 on domain   3:     .28562 elapsed seconds
Timing for main: time 2016-02-05_13:16:26 on domain   3:     .27073 elapsed seconds
Timing for main: time 2016-02-05_13:16:40 on domain   3:     .28569 elapsed seconds
Timing for main: time 2016-02-05_13:16:20 on domain   4:     .34533 elapsed seconds
Timing for main: time 2016-02-05_13:16:40 on domain   4:     .32439 elapsed seconds
Timing for main: time 2016-02-05_13:16:40 on domain   2:    2.52160 elapsed seconds
Timing for main: time 2016-02-05_13:16:53 on domain   3:     .28558 elapsed seconds
Timing for main: time 2016-02-05_13:17:06 on domain   3:     .27377 elapsed seconds
Timing for main: time 2016-02-05_13:17:20 on domain   3:     .26972 elapsed seconds
Timing for main: time 2016-02-05_13:17:00 on domain   4:     .34337 elapsed seconds
Timing for main: time 2016-02-05_13:17:20 on domain   4:     .32488 elapsed seconds
Timing for main: time 2016-02-05_13:17:20 on domain   2:    2.44087 elapsed seconds
Timing for main: time 2016-02-05_13:17:33 on domain   3:     .33277 elapsed seconds
[...]
Timing for main: time 2016-02-06_07:36:00 on domain   2:    2.45028 elapsed seconds
Timing for main: time 2016-02-06_07:36:00 on domain   1:    7.91158 elapsed seconds
Timing for main: time 2016-02-06_07:36:13 on domain   3:     .29058 elapsed seconds
Timing for main: time 2016-02-06_07:36:26 on domain   3:     .27411 elapsed seconds
Timing for main: time 2016-02-06_07:36:40 on domain   3:     .27457 elapsed seconds
Timing for main: time 2016-02-06_07:36:20 on domain   4:     .34429 elapsed seconds
Timing for main: time 2016-02-06_07:36:40 on domain   4:     .32150 elapsed seconds
Timing for main: time 2016-02-06_07:36:40 on domain   2:    2.46064 elapsed seconds
Timing for main: time 2016-02-06_07:36:53 on domain   3:     .28961 elapsed seconds
Timing for main: time 2016-02-06_07:37:06 on domain   3:     .27433 elapsed seconds
Timing for main: time 2016-02-06_07:37:20 on domain   3:     .27377 elapsed seconds
Timing for main: time 2016-02-06_07:37:00 on domain   4:     .34149 elapsed seconds
Timing for main: time 2016-02-06_07:37:20 on domain   4:     .32183 elapsed seconds
Timing for main: time 2016-02-06_07:37:20 on domain   2:    2.43770 elapsed seconds
Timing for main: time 2016-02-06_07:37:33 on domain   3:     .29108 elapsed seconds
Timing for main: time 2016-02-06_07:37:46 on domain   3:     .27413 elapsed seconds
Timing for main: time 2016-02-06_07:38:00 on domain   3:     .27411 elapsed seconds
Timing for main: time 2016-02-06_07:37:40 on domain   4:     .34154 elapsed seconds
Timing for main: time 2016-02-06_07:38:00 on domain   4:     .32272 elapsed seconds
Timing for main: time 2016-02-06_07:38:00 on domain   2:    2.44787 elapsed seconds
Timing for main: time 2016-02-06_07:38:00 on domain   1:    7.82649 elapsed seconds
Timing for main: time 2016-02-06_07:38:13 on domain   3:     .29077 elapsed seconds
Timing for main: time 2016-02-06_07:38:26 on domain   3:     .27417 elapsed seconds
Timing for main: time 2016-02-06_07:38:40 on domain   3:     .27423 elapsed seconds
Timing for main: time 2016-02-06_07:38:20 on domain   4:     .34206 elapsed seconds
Timing for main: time 2016-02-06_07:38:40 on domain   4:     .32688 elapsed seconds
Timing for main: time 2016-02-06_07:38:40 on domain   2:    2.47638 elapsed seconds
Timing for main: time 2016-02-06_07:38:53 on domain   3:     .29043 elapsed seconds
Timing for main: time 2016-02-06_07:39:06 on domain   3:     .27406 elapsed seconds
Timing for main: time 2016-02-06_07:39:20 on domain   3:     .27443 elapsed seconds
Timing for main: time 2016-02-06_07:39:00 on domain   4:     .34158 elapsed seconds
Timing for main: time 2016-02-06_07:39:20 on domain   4:     .32287 elapsed seconds
Timing for main: time 2016-02-06_07:39:20 on domain   2:    2.43700 elapsed seconds
Timing for main: time 2016-02-06_07:39:33 on domain   3:     .29231 elapsed seconds
Timing for main: time 2016-02-06_07:39:46 on domain   3:     .27394 elapsed seconds
Timing for main: time 2016-02-06_07:40:00 on domain   3:     .27621 elapsed seconds
Timing for main: time 2016-02-06_07:39:40 on domain   4:     .34615 elapsed seconds
Timing for main: time 2016-02-06_07:40:00 on domain   4:     .34058 elapsed seconds
Timing for main: time 2016-02-06_07:40:00 on domain   2:    2.46339 elapsed seconds
Timing for main: time 2016-02-06_07:40:00 on domain   1:    7.85648 elapsed seconds
Timing for main: time 2016-02-06_07:40:13 on domain   3:     .29114 elapsed seconds
Timing for main: time 2016-02-06_07:40:26 on domain   3:     .27400 elapsed seconds
Timing for main: time 2016-02-06_07:40:40 on domain   3:     .28755 elapsed seconds
Timing for main: time 2016-02-06_07:40:20 on domain   4:     .34209 elapsed seconds
Timing for main: time 2016-02-06_07:40:40 on domain   4:     .32396 elapsed seconds
Timing for main: time 2016-02-06_07:40:40 on domain   2:    2.47137 elapsed seconds
Timing for main: time 2016-02-06_07:40:53 on domain   3:     .29100 elapsed seconds
Timing for main: time 2016-02-06_07:41:06 on domain   3:     .27424 elapsed seconds
Timing for main: time 2016-02-06_07:41:20 on domain   3:     .27438 elapsed seconds
Timing for main: time 2016-02-06_07:41:00 on domain   4:     .34184 elapsed seconds
Timing for main: time 2016-02-06_07:41:20 on domain   4:     .32200 elapsed seconds
Timing for main: time 2016-02-06_07:41:20 on domain   2:    2.43678 elapsed seconds
Timing for main: time 2016-02-06_07:41:33 on domain   3:     .29071 elapsed seconds
Timing for main: time 2016-02-06_07:41:46 on domain   3:     .27483 elapsed seconds
Timing for main: time 2016-02-06_07:42:00 on domain   3:     .27720 elapsed seconds
Timing for main: time 2016-02-06_07:41:40 on domain   4:     .34174 elapsed seconds
Timing for main: time 2016-02-06_07:42:00 on domain   4:     .32212 elapsed seconds
Timing for main: time 2016-02-06_07:42:00 on domain   2:    2.44040 elapsed seconds
Timing for main: time 2016-02-06_07:42:00 on domain   1:    7.84262 elapsed seconds
Timing for main: time 2016-02-06_07:42:13 on domain   3:     .29104 elapsed seconds
Timing for main: time 2016-02-06_07:42:26 on domain   3:     .27412 elapsed seconds
Timing for main: time 2016-02-06_07:42:40 on domain   3:     .27432 elapsed seconds
Timing for main: time 2016-02-06_07:42:20 on domain   4:     .34277 elapsed seconds
Timing for main: time 2016-02-06_07:42:40 on domain   4:     .32333 elapsed seconds
Timing for main: time 2016-02-06_07:42:40 on domain   2:    2.45769 elapsed seconds
Timing for main: time 2016-02-06_07:42:53 on domain   3:     .29179 elapsed seconds
Timing for main: time 2016-02-06_07:43:06 on domain   3:     .27488 elapsed seconds
Timing for main: time 2016-02-06_07:43:20 on domain   3:     .27459 elapsed seconds
Timing for main: time 2016-02-06_07:43:00 on domain   4:     .34313 elapsed seconds
Timing for main: time 2016-02-06_07:43:20 on domain   4:     .32313 elapsed seconds
Timing for main: time 2016-02-06_07:43:20 on domain   2:    2.44164 elapsed seconds
Timing for main: time 2016-02-06_07:43:33 on domain   3:     .29039 elapsed seconds
Timing for main: time 2016-02-06_07:43:46 on domain   3:     .27443 elapsed seconds
Timing for main: time 2016-02-06_07:44:00 on domain   3:     .27425 elapsed seconds
Timing for main: time 2016-02-06_07:43:40 on domain   4:     .34120 elapsed seconds
Timing for main: time 2016-02-06_07:44:00 on domain   4:     .32211 elapsed seconds
Timing for main: time 2016-02-06_07:44:00 on domain   2:    2.45188 elapsed seconds
Timing for main: time 2016-02-06_07:44:00 on domain   1:    7.83350 elapsed seconds
Timing for main: time 2016-02-06_07:44:13 on domain   3:     .29068 elapsed seconds
Timing for main: time 2016-02-06_07:44:26 on domain   3:     .27418 elapsed seconds
Timing for main: time 2016-02-06_07:44:40 on domain   3:     .27508 elapsed seconds
Timing for main: time 2016-02-06_07:44:20 on domain   4:     .34169 elapsed seconds
Timing for main: time 2016-02-06_07:44:40 on domain   4:     .32238 elapsed seconds
Timing for main: time 2016-02-06_07:44:40 on domain   2:    2.45703 elapsed seconds
Timing for main: time 2016-02-06_07:44:53 on domain   3:     .31303 elapsed seconds
Timing for main: time 2016-02-06_07:45:06 on domain   3:     .34204 elapsed seconds
Timing for main: time 2016-02-06_07:45:20 on domain   3:     .27449 elapsed seconds
Timing for main: time 2016-02-06_07:45:00 on domain   4:     .35736 elapsed seconds
Timing for main: time 2016-02-06_07:45:20 on domain   4:     .32142 elapsed seconds
Timing for main: time 2016-02-06_07:45:20 on domain   2:    2.54232 elapsed seconds
Timing for main: time 2016-02-06_07:45:33 on domain   3:     .29078 elapsed seconds
Timing for main: time 2016-02-06_07:45:46 on domain   3:     .28872 elapsed seconds
Timing for main: time 2016-02-06_07:46:00 on domain   3:     .27463 elapsed seconds
Timing for main: time 2016-02-06_07:45:40 on domain   4:     .34183 elapsed seconds
Timing for main: time 2016-02-06_07:46:00 on domain   4:     .32190 elapsed seconds
Timing for main: time 2016-02-06_07:46:00 on domain   2:    2.45186 elapsed seconds
Timing for main: time 2016-02-06_07:46:00 on domain   1:    8.01246 elapsed seconds
Timing for main: time 2016-02-06_07:46:13 on domain   3:     .29420 elapsed seconds
Timing for main: time 2016-02-06_07:46:26 on domain   3:     .27440 elapsed seconds
Timing for main: time 2016-02-06_07:46:40 on domain   3:     .27784 elapsed seconds
Timing for main: time 2016-02-06_07:46:20 on domain   4:     .34212 elapsed seconds
Timing for main: time 2016-02-06_07:46:40 on domain   4:     .32215 elapsed seconds
Timing for main: time 2016-02-06_07:46:40 on domain   2:    2.46431 elapsed seconds
Timing for main: time 2016-02-06_07:46:53 on domain   3:     .29120 elapsed seconds
Timing for main: time 2016-02-06_07:47:06 on domain   3:     .27458 elapsed seconds
Timing for main: time 2016-02-06_07:47:20 on domain   3:     .27421 elapsed seconds
Timing for main: time 2016-02-06_07:47:00 on domain   4:     .34218 elapsed seconds
Timing for main: time 2016-02-06_07:47:20 on domain   4:     .32298 elapsed seconds
Timing for main: time 2016-02-06_07:47:20 on domain   2:    2.43896 elapsed seconds
Timing for main: time 2016-02-06_07:47:33 on domain   3:     .29165 elapsed seconds
Timing for main: time 2016-02-06_07:47:46 on domain   3:     .27448 elapsed seconds
Timing for main: time 2016-02-06_07:48:00 on domain   3:     .27461 elapsed seconds
Timing for main: time 2016-02-06_07:47:40 on domain   4:     .34149 elapsed seconds
Timing for main: time 2016-02-06_07:48:00 on domain   4:     .32179 elapsed seconds
Timing for main: time 2016-02-06_07:48:00 on domain   2:    2.44013 elapsed seconds
Timing for main: time 2016-02-06_07:48:00 on domain   1:    7.83706 elapsed seconds
Timing for main: time 2016-02-06_07:48:13 on domain   3:     .29502 elapsed seconds
Timing for main: time 2016-02-06_07:48:26 on domain   3:     .27463 elapsed seconds
Timing for main: time 2016-02-06_07:48:40 on domain   3:     .27438 elapsed seconds
Timing for main: time 2016-02-06_07:48:20 on domain   4:     .34201 elapsed seconds
Timing for main: time 2016-02-06_07:48:40 on domain   4:     .32208 elapsed seconds
Timing for main: time 2016-02-06_07:48:40 on domain   2:    2.46136 elapsed seconds
Timing for main: time 2016-02-06_07:48:53 on domain   3:     .29163 elapsed seconds
Timing for main: time 2016-02-06_07:49:06 on domain   3:     .27450 elapsed seconds
Timing for main: time 2016-02-06_07:49:20 on domain   3:     .27624 elapsed seconds
Timing for main: time 2016-02-06_07:49:00 on domain   4:     .34196 elapsed seconds
Timing for main: time 2016-02-06_07:49:20 on domain   4:     .32308 elapsed seconds
Timing for main: time 2016-02-06_07:49:20 on domain   2:    2.45670 elapsed seconds
Timing for main: time 2016-02-06_07:49:33 on domain   3:     .29133 elapsed seconds
Timing for main: time 2016-02-06_07:49:46 on domain   3:     .27872 elapsed seconds
Timing for main: time 2016-02-06_07:50:00 on domain   3:     .27458 elapsed seconds
Timing for main: time 2016-02-06_07:49:40 on domain   4:     .34183 elapsed seconds
Timing for main: time 2016-02-06_07:50:00 on domain   4:     .33687 elapsed seconds
Timing for main: time 2016-02-06_07:50:00 on domain   2:    2.45671 elapsed seconds
Timing for main: time 2016-02-06_07:50:00 on domain   1:    7.85509 elapsed seconds
Timing for main: time 2016-02-06_07:50:13 on domain   3:     .29113 elapsed seconds
Timing for main: time 2016-02-06_07:50:26 on domain   3:     .27453 elapsed seconds
Timing for main: time 2016-02-06_07:50:40 on domain   3:     .27470 elapsed seconds
Timing for main: time 2016-02-06_07:50:20 on domain   4:     .34426 elapsed seconds
Timing for main: time 2016-02-06_07:50:40 on domain   4:     .32288 elapsed seconds
Timing for main: time 2016-02-06_07:50:40 on domain   2:    2.46008 elapsed seconds
Timing for main: time 2016-02-06_07:50:53 on domain   3:     .30376 elapsed seconds
Timing for main: time 2016-02-06_07:51:06 on domain   3:     .27466 elapsed seconds
Timing for main: time 2016-02-06_07:51:20 on domain   3:     .27462 elapsed seconds
Timing for main: time 2016-02-06_07:51:00 on domain   4:     .34163 elapsed seconds
Timing for main: time 2016-02-06_07:51:20 on domain   4:     .32264 elapsed seconds
Timing for main: time 2016-02-06_07:51:20 on domain   2:    2.45098 elapsed seconds
Timing for main: time 2016-02-06_07:51:33 on domain   3:     .29097 elapsed seconds
Timing for main: time 2016-02-06_07:51:46 on domain   3:     .27582 elapsed seconds
Timing for main: time 2016-02-06_07:52:00 on domain   3:     .27427 elapsed seconds
Timing for main: time 2016-02-06_07:51:40 on domain   4:     .34331 elapsed seconds
Timing for main: time 2016-02-06_07:52:00 on domain   4:     .32186 elapsed seconds
Timing for main: time 2016-02-06_07:52:00 on domain   2:    2.44152 elapsed seconds
Timing for main: time 2016-02-06_07:52:00 on domain   1:    7.83257 elapsed seconds
Timing for main: time 2016-02-06_07:52:13 on domain   3:     .29111 elapsed seconds
Timing for main: time 2016-02-06_07:52:26 on domain   3:     .27578 elapsed seconds
Timing for main: time 2016-02-06_07:52:40 on domain   3:     .27435 elapsed seconds
Timing for main: time 2016-02-06_07:52:20 on domain   4:     .34176 elapsed seconds
Timing for main: time 2016-02-06_07:52:40 on domain   4:     .32508 elapsed seconds
Timing for main: time 2016-02-06_07:52:40 on domain   2:    2.46217 elapsed seconds
Timing for main: time 2016-02-06_07:52:53 on domain   3:     .29138 elapsed seconds
Timing for main: time 2016-02-06_07:53:06 on domain   3:     .27406 elapsed seconds
Timing for main: time 2016-02-06_07:53:20 on domain   3:     .27484 elapsed seconds
Timing for main: time 2016-02-06_07:53:00 on domain   4:     .34182 elapsed seconds
Timing for main: time 2016-02-06_07:53:20 on domain   4:     .32202 elapsed seconds
Timing for main: time 2016-02-06_07:53:20 on domain   2:    2.43817 elapsed seconds
Timing for main: time 2016-02-06_07:53:33 on domain   3:     .29095 elapsed seconds
Timing for main: time 2016-02-06_07:53:46 on domain   3:     .27542 elapsed seconds
Timing for main: time 2016-02-06_07:54:00 on domain   3:     .27478 elapsed seconds
Timing for main: time 2016-02-06_07:53:40 on domain   4:     .34171 elapsed seconds
Timing for main: time 2016-02-06_07:54:00 on domain   4:     .32288 elapsed seconds
Timing for main: time 2016-02-06_07:54:00 on domain   2:    2.43970 elapsed seconds
Timing for main: time 2016-02-06_07:54:00 on domain   1:    7.83394 elapsed seconds
Timing for main: time 2016-02-06_07:54:13 on domain   3:     .29120 elapsed seconds
Timing for main: time 2016-02-06_07:54:26 on domain   3:     .27498 elapsed seconds
Timing for main: time 2016-02-06_07:54:40 on domain   3:     .27534 elapsed seconds
Timing for main: time 2016-02-06_07:54:20 on domain   4:     .34151 elapsed seconds
Timing for main: time 2016-02-06_07:54:40 on domain   4:     .32304 elapsed seconds
Timing for main: time 2016-02-06_07:54:40 on domain   2:    2.47907 elapsed seconds
Timing for main: time 2016-02-06_07:54:53 on domain   3:     .29190 elapsed seconds
Timing for main: time 2016-02-06_07:55:06 on domain   3:     .27464 elapsed seconds
Timing for main: time 2016-02-06_07:55:20 on domain   3:     .27936 elapsed seconds
Timing for main: time 2016-02-06_07:55:00 on domain   4:     .35818 elapsed seconds
Timing for main: time 2016-02-06_07:55:20 on domain   4:     .32180 elapsed seconds
Timing for main: time 2016-02-06_07:55:20 on domain   2:    2.46052 elapsed seconds
Timing for main: time 2016-02-06_07:55:33 on domain   3:     .29120 elapsed seconds
Timing for main: time 2016-02-06_07:55:46 on domain   3:     .27486 elapsed seconds
Timing for main: time 2016-02-06_07:56:00 on domain   3:     .34918 elapsed seconds
Timing for main: time 2016-02-06_07:55:40 on domain   4:     .34213 elapsed seconds
Timing for main: time 2016-02-06_07:56:00 on domain   4:     .32362 elapsed seconds
Timing for main: time 2016-02-06_07:56:00 on domain   2:    2.53232 elapsed seconds
Timing for main: time 2016-02-06_07:56:00 on domain   1:    7.95129 elapsed seconds
Timing for main: time 2016-02-06_07:56:13 on domain   3:     .29119 elapsed seconds
Timing for main: time 2016-02-06_07:56:26 on domain   3:     .27561 elapsed seconds
Timing for main: time 2016-02-06_07:56:40 on domain   3:     .27487 elapsed seconds
Timing for main: time 2016-02-06_07:56:20 on domain   4:     .34185 elapsed seconds
Timing for main: time 2016-02-06_07:56:40 on domain   4:     .32190 elapsed seconds
Timing for main: time 2016-02-06_07:56:40 on domain   2:    2.45887 elapsed seconds
Timing for main: time 2016-02-06_07:56:53 on domain   3:     .29248 elapsed seconds
Timing for main: time 2016-02-06_07:57:06 on domain   3:     .27474 elapsed seconds
Timing for main: time 2016-02-06_07:57:20 on domain   3:     .27476 elapsed seconds
Timing for main: time 2016-02-06_07:57:00 on domain   4:     .34538 elapsed seconds
Timing for main: time 2016-02-06_07:57:20 on domain   4:     .32209 elapsed seconds
Timing for main: time 2016-02-06_07:57:20 on domain   2:    2.44349 elapsed seconds
Timing for main: time 2016-02-06_07:57:33 on domain   3:     .29109 elapsed seconds
Timing for main: time 2016-02-06_07:57:46 on domain   3:     .27479 elapsed seconds
Timing for main: time 2016-02-06_07:58:00 on domain   3:     .27506 elapsed seconds
Timing for main: time 2016-02-06_07:57:40 on domain   4:     .34289 elapsed seconds
Timing for main: time 2016-02-06_07:58:00 on domain   4:     .32377 elapsed seconds
Timing for main: time 2016-02-06_07:58:00 on domain   2:    2.44151 elapsed seconds
Timing for main: time 2016-02-06_07:58:00 on domain   1:    7.82374 elapsed seconds
  photolysis_driver: called for domain  1
Timing for main: time 2016-02-06_07:58:13 on domain   3:     .29148 elapsed seconds
Timing for main: time 2016-02-06_07:58:26 on domain   3:     .27533 elapsed seconds
Timing for main: time 2016-02-06_07:58:40 on domain   3:     .27479 elapsed seconds
Timing for main: time 2016-02-06_07:58:20 on domain   4:     .34150 elapsed seconds
Timing for main: time 2016-02-06_07:58:40 on domain   4:     .32191 elapsed seconds
Timing for main: time 2016-02-06_07:58:40 on domain   2:    2.45834 elapsed seconds
Timing for main: time 2016-02-06_07:58:53 on domain   3:     .29102 elapsed seconds
Timing for main: time 2016-02-06_07:59:06 on domain   3:     .27500 elapsed seconds
Timing for main: time 2016-02-06_07:59:20 on domain   3:     .27490 elapsed seconds
Timing for main: time 2016-02-06_07:59:00 on domain   4:     .34560 elapsed seconds
Timing for main: time 2016-02-06_07:59:20 on domain   4:     .38346 elapsed seconds
Timing for main: time 2016-02-06_07:59:20 on domain   2:    2.50513 elapsed seconds
  photolysis_driver: called for domain  2
Timing for main: time 2016-02-06_07:59:33 on domain   3:     .29192 elapsed seconds
Timing for main: time 2016-02-06_07:59:46 on domain   3:     .27545 elapsed seconds
  photolysis_driver: called for domain  3
Timing for main: time 2016-02-06_08:00:00 on domain   3:    1.89386 elapsed seconds
Timing for Writing wrfout_d03_2016-02-06_08:00:00 for domain        3:    1.63492 elapsed seconds
Timing for main: time 2016-02-06_07:59:40 on domain   4:     .35768 elapsed seconds
  photolysis_driver: called for domain  4
Timing for main: time 2016-02-06_08:00:00 on domain   4:    2.21686 elapsed seconds
Timing for Writing wrfout_d04_2016-02-06_08:00:00 for domain        4:    1.88013 elapsed seconds
Timing for main: time 2016-02-06_08:00:00 on domain   2:   11.52730 elapsed seconds
Timing for Writing wrfout_d02_2016-02-06_08:00:00 for domain        2:    3.55288 elapsed seconds
Timing for main: time 2016-02-06_08:00:00 on domain   1:   23.49002 elapsed seconds
Timing for Writing wrfout_d01_2016-02-06_08:00:00 for domain        1:    1.34185 elapsed seconds
 d01 2016-02-06_08:00:00 wrf: SUCCESS COMPLETE WRF
