taskid: 0 hostname: p10a51.pbm.ihost.com
  Ntasks in X  10 , ntasks in Y  18
 Setting blank km_opt entries to domain #1 values.
  --> The km_opt entry in the namelist.input is now max_domains.
 Setting blank diff_opt entries to domain #1 values.
  --> The diff_opt entry in the namelist.input is now max_domains.
 --- WARNING: traj_opt is zero, but num_traj is not zero; setting num_traj to zero.
 --- NOTE: hypsometric_opt is 2, setting adjust_heights = F
 --- NOTE: sst_update is 0, setting io_form_auxinput4 = 0 and auxinput4_interval = 0 for all domains
 --- NOTE: sst_update is 0, setting io_form_auxinput4 = 0 and auxinput4_interval = 0 for all domains
 --- NOTE: sst_update is 0, setting io_form_auxinput4 = 0 and auxinput4_interval = 0 for all domains
 --- NOTE: sst_update is 0, setting io_form_auxinput4 = 0 and auxinput4_interval = 0 for all domains
 --- NOTE: grid_fdda is 0 for domain      1, setting gfdda interval and ending time to 0 for that domain.
 --- NOTE: both grid_sfdda and pxlsm_soil_nudge are 0 for domain      1, setting sgfdda interval and ending time to 0 for that domain.
 --- NOTE: obs_nudge_opt is 0 for domain      1, setting obs nudging interval and ending time to 0 for that domain.
 --- NOTE: grid_fdda is 0 for domain      2, setting gfdda interval and ending time to 0 for that domain.
 --- NOTE: both grid_sfdda and pxlsm_soil_nudge are 0 for domain      2, setting sgfdda interval and ending time to 0 for that domain.
 --- NOTE: obs_nudge_opt is 0 for domain      2, setting obs nudging interval and ending time to 0 for that domain.
 --- NOTE: grid_fdda is 0 for domain      3, setting gfdda interval and ending time to 0 for that domain.
 --- NOTE: both grid_sfdda and pxlsm_soil_nudge are 0 for domain      3, setting sgfdda interval and ending time to 0 for that domain.
 --- NOTE: obs_nudge_opt is 0 for domain      3, setting obs nudging interval and ending time to 0 for that domain.
 --- NOTE: grid_fdda is 0 for domain      4, setting gfdda interval and ending time to 0 for that domain.
 --- NOTE: both grid_sfdda and pxlsm_soil_nudge are 0 for domain      4, setting sgfdda interval and ending time to 0 for that domain.
 --- NOTE: obs_nudge_opt is 0 for domain      4, setting obs nudging interval and ending time to 0 for that domain.
 bl_pbl_physics /= 4, implies mfshconv must be 0, resetting
 --- NOTE: num_soil_layers has been set to      4
 WRF V3.6 MODEL
  *************************************
  Parent domain
  ids,ide,jds,jde  1 271 1 181
  ims,ime,jms,jme  -4 34 -4 17
  ips,ipe,jps,jpe  1 27 1 10
  *************************************
 DYNAMICS OPTION: Eulerian Mass Coordinate
    alloc_space_field: domain  1 ,  87788264  bytes allocated
   med_initialdata_input: calling input_input
Timing for processing wrfinput file (stream 0) for domain        1:    3.89737 elapsed seconds
 INPUT LandUse = "USGS"
  LANDUSE TYPE = "USGS" FOUND 33  CATEGORIES 2  SEASONS WATER CATEGORY =  16  SNOW CATEGORY =  24
 INITIALIZE THREE Noah LSM RELATED TABLES
  LANDUSE TYPE = USGS FOUND 27  CATEGORIES
  INPUT SOIL TEXTURE CLASSIFICATION = STAS
  SOIL TEXTURE CLASSIFICATION = STAS FOUND 19  CATEGORIES
 *********************************************************************
 *             PROGRAM:WRF/CHEM V3.6 MODEL
 *                                                                   *
 *    PLEASE REPORT ANY BUGS TO WRF/CHEM HELP at                     *
 *                                                                   *
 *              wrfchemhelp.gsd@noaa.gov                             *
 *                                                                   *
 *********************************************************************
 WARNING: dust option 1 currently works only with the GOCART aerosol option.
 WARNING: sea salt option 1 currently works only with the GOCART aerosol option.
  *************************************
  Nesting domain
  ids,ide,jds,jde  1 361 1 253
  ims,ime,jms,jme  -4 48 -4 24
  ips,ipe,jps,jpe  1 36 1 14
  INTERMEDIATE domain
  ids,ide,jds,jde  74 199 47 136
  ims,ime,jms,jme  69 97 42 63
  ips,ipe,jps,jpe  72 87 45 53
  *************************************
 d01 2016-02-05_12:00:00  alloc_space_field: domain  2 ,  153204668  bytes allocated
 d01 2016-02-05_12:00:00  alloc_space_field: domain  2 ,  8036248  bytes allocated
 d01 2016-02-05_12:00:00 *** Initializing nest domain # 2 from an input file. ***
 d01 2016-02-05_12:00:00 med_initialdata_input: calling input_input
Timing for processing wrfinput file (stream 0) for domain        2:    6.91793 elapsed seconds
 INPUT LandUse = "USGS"
  LANDUSE TYPE = "USGS" FOUND 33  CATEGORIES 2  SEASONS WATER CATEGORY =  16  SNOW CATEGORY =  24
 INITIALIZE THREE Noah LSM RELATED TABLES
  LANDUSE TYPE = USGS FOUND 27  CATEGORIES
  INPUT SOIL TEXTURE CLASSIFICATION = STAS
  SOIL TEXTURE CLASSIFICATION = STAS FOUND 19  CATEGORIES
 *********************************************************************
 *             PROGRAM:WRF/CHEM V3.6 MODEL
 *                                                                   *
 *    PLEASE REPORT ANY BUGS TO WRF/CHEM HELP at                     *
 *                                                                   *
 *              wrfchemhelp.gsd@noaa.gov                             *
 *                                                                   *
 *********************************************************************
 WARNING: dust option 1 currently works only with the GOCART aerosol option.
 WARNING: sea salt option 1 currently works only with the GOCART aerosol option.
 INPUT LandUse = "USGS"
  LANDUSE TYPE = "USGS" FOUND 33  CATEGORIES 2  SEASONS WATER CATEGORY =  16  SNOW CATEGORY =  24
 INITIALIZE THREE Noah LSM RELATED TABLES
  LANDUSE TYPE = USGS FOUND 27  CATEGORIES
  INPUT SOIL TEXTURE CLASSIFICATION = STAS
  SOIL TEXTURE CLASSIFICATION = STAS FOUND 19  CATEGORIES
 *********************************************************************
 *             PROGRAM:WRF/CHEM V3.6 MODEL
 *                                                                   *
 *    PLEASE REPORT ANY BUGS TO WRF/CHEM HELP at                     *
 *                                                                   *
 *              wrfchemhelp.gsd@noaa.gov                             *
 *                                                                   *
 *********************************************************************
 WARNING: dust option 1 currently works only with the GOCART aerosol option.
 WARNING: sea salt option 1 currently works only with the GOCART aerosol option.
 INPUT LandUse = "USGS"
  LANDUSE TYPE = "USGS" FOUND 33  CATEGORIES 2  SEASONS WATER CATEGORY =  16  SNOW CATEGORY =  24
 INITIALIZE THREE Noah LSM RELATED TABLES
  LANDUSE TYPE = USGS FOUND 27  CATEGORIES
  INPUT SOIL TEXTURE CLASSIFICATION = STAS
  SOIL TEXTURE CLASSIFICATION = STAS FOUND 19  CATEGORIES
 *********************************************************************
 *             PROGRAM:WRF/CHEM V3.6 MODEL
 *                                                                   *
 *    PLEASE REPORT ANY BUGS TO WRF/CHEM HELP at                     *
 *                                                                   *
 *              wrfchemhelp.gsd@noaa.gov                             *
 *                                                                   *
 *********************************************************************
 WARNING: dust option 1 currently works only with the GOCART aerosol option.
 WARNING: sea salt option 1 currently works only with the GOCART aerosol option.
Timing for Writing wrfout_d01_2016-02-05_12:00:00 for domain        1:    1.46090 elapsed seconds
  mediation_integrate: med_read_wrf_chem_emissions: Open file wrfchemi_12z_d01
  HOURLY EMISSIONS UPDATE TIME         .0        .0
 mediation_integrate: med_read_wrf_chem_emissions: Read emissions for time 2016-02-05_12:00:00
 **WARNING** Time in input file not being checked **WARNING**
Timing for processing lateral boundary for domain        1:    3.14998 elapsed seconds
  Tile Strategy is not specified. Assuming 1D-Y
 WRF TILE   1 IS      1 IE     27 JS      1 JE     10
 WRF NUMBER OF TILES =   1
  photolysis_driver: called for domain  1
  *************************************
  Nesting domain
  ids,ide,jds,jde  1 307 1 241
  ims,ime,jms,jme  -4 42 -4 24
  ips,ipe,jps,jpe  1 31 1 14
  INTERMEDIATE domain
  ids,ide,jds,jde  124 231 35 120
  ims,ime,jms,jme  119 145 30 51
  ips,ipe,jps,jpe  122 135 33 41
  *************************************
 d02 2016-02-05_12:00:00  alloc_space_field: domain  3 ,  136355948  bytes allocated
 d02 2016-02-05_12:00:00  alloc_space_field: domain  3 ,  7482024  bytes allocated
 d02 2016-02-05_12:00:00 *** Initializing nest domain # 3 from an input file. ***
 d02 2016-02-05_12:00:00 med_initialdata_input: calling input_input
Timing for processing wrfinput file (stream 0) for domain        3:    5.57086 elapsed seconds
 INPUT LandUse = "USGS"
  LANDUSE TYPE = "USGS" FOUND 33  CATEGORIES 2  SEASONS WATER CATEGORY =  16  SNOW CATEGORY =  24
 INITIALIZE THREE Noah LSM RELATED TABLES
  LANDUSE TYPE = USGS FOUND 27  CATEGORIES
  INPUT SOIL TEXTURE CLASSIFICATION = STAS
  SOIL TEXTURE CLASSIFICATION = STAS FOUND 19  CATEGORIES
 *********************************************************************
 *             PROGRAM:WRF/CHEM V3.6 MODEL
 *                                                                   *
 *    PLEASE REPORT ANY BUGS TO WRF/CHEM HELP at                     *
 *                                                                   *
 *              wrfchemhelp.gsd@noaa.gov                             *
 *                                                                   *
 *********************************************************************
 WARNING: dust option 1 currently works only with the GOCART aerosol option.
 WARNING: sea salt option 1 currently works only with the GOCART aerosol option.
 INPUT LandUse = "USGS"
  LANDUSE TYPE = "USGS" FOUND 33  CATEGORIES 2  SEASONS WATER CATEGORY =  16  SNOW CATEGORY =  24
 INITIALIZE THREE Noah LSM RELATED TABLES
  LANDUSE TYPE = USGS FOUND 27  CATEGORIES
  INPUT SOIL TEXTURE CLASSIFICATION = STAS
  SOIL TEXTURE CLASSIFICATION = STAS FOUND 19  CATEGORIES
 *********************************************************************
 *             PROGRAM:WRF/CHEM V3.6 MODEL
 *                                                                   *
 *    PLEASE REPORT ANY BUGS TO WRF/CHEM HELP at                     *
 *                                                                   *
 *              wrfchemhelp.gsd@noaa.gov                             *
 *                                                                   *
 *********************************************************************
 WARNING: dust option 1 currently works only with the GOCART aerosol option.
 WARNING: sea salt option 1 currently works only with the GOCART aerosol option.
 INPUT LandUse = "USGS"
  LANDUSE TYPE = "USGS" FOUND 33  CATEGORIES 2  SEASONS WATER CATEGORY =  16  SNOW CATEGORY =  24
 INITIALIZE THREE Noah LSM RELATED TABLES
  LANDUSE TYPE = USGS FOUND 27  CATEGORIES
  INPUT SOIL TEXTURE CLASSIFICATION = STAS
  SOIL TEXTURE CLASSIFICATION = STAS FOUND 19  CATEGORIES
 *********************************************************************
 *             PROGRAM:WRF/CHEM V3.6 MODEL
 *                                                                   *
 *    PLEASE REPORT ANY BUGS TO WRF/CHEM HELP at                     *
 *                                                                   *
 *              wrfchemhelp.gsd@noaa.gov                             *
 *                                                                   *
 *********************************************************************
 WARNING: dust option 1 currently works only with the GOCART aerosol option.
 WARNING: sea salt option 1 currently works only with the GOCART aerosol option.
  *************************************
  Nesting domain
  ids,ide,jds,jde  1 217 1 388
  ims,ime,jms,jme  -4 33 -4 33
  ips,ipe,jps,jpe  1 22 1 22
  INTERMEDIATE domain
  ids,ide,jds,jde  225 302 83 217
  ims,ime,jms,jme  220 243 78 101
  ips,ipe,jps,jpe  223 233 81 91
  *************************************
 d02 2016-02-05_12:00:00  alloc_space_field: domain  4 ,  143806760  bytes allocated
 d02 2016-02-05_12:00:00  alloc_space_field: domain  4 ,  7255296  bytes allocated
 d02 2016-02-05_12:00:00 *** Initializing nest domain # 4 from an input file. ***
 d02 2016-02-05_12:00:00 med_initialdata_input: calling input_input
Timing for processing wrfinput file (stream 0) for domain        4:    7.45881 elapsed seconds
 INPUT LandUse = "USGS"
  LANDUSE TYPE = "USGS" FOUND 33  CATEGORIES 2  SEASONS WATER CATEGORY =  16  SNOW CATEGORY =  24
 INITIALIZE THREE Noah LSM RELATED TABLES
  LANDUSE TYPE = USGS FOUND 27  CATEGORIES
  INPUT SOIL TEXTURE CLASSIFICATION = STAS
  SOIL TEXTURE CLASSIFICATION = STAS FOUND 19  CATEGORIES
 *********************************************************************
 *             PROGRAM:WRF/CHEM V3.6 MODEL
 *                                                                   *
 *    PLEASE REPORT ANY BUGS TO WRF/CHEM HELP at                     *
 *                                                                   *
 *              wrfchemhelp.gsd@noaa.gov                             *
 *                                                                   *
 *********************************************************************
 WARNING: dust option 1 currently works only with the GOCART aerosol option.
 WARNING: sea salt option 1 currently works only with the GOCART aerosol option.
 INPUT LandUse = "USGS"
  LANDUSE TYPE = "USGS" FOUND 33  CATEGORIES 2  SEASONS WATER CATEGORY =  16  SNOW CATEGORY =  24
 INITIALIZE THREE Noah LSM RELATED TABLES
  LANDUSE TYPE = USGS FOUND 27  CATEGORIES
  INPUT SOIL TEXTURE CLASSIFICATION = STAS
  SOIL TEXTURE CLASSIFICATION = STAS FOUND 19  CATEGORIES
 *********************************************************************
 *             PROGRAM:WRF/CHEM V3.6 MODEL
 *                                                                   *
 *    PLEASE REPORT ANY BUGS TO WRF/CHEM HELP at                     *
 *                                                                   *
 *              wrfchemhelp.gsd@noaa.gov                             *
 *                                                                   *
 *********************************************************************
 WARNING: dust option 1 currently works only with the GOCART aerosol option.
 WARNING: sea salt option 1 currently works only with the GOCART aerosol option.
 INPUT LandUse = "USGS"
  LANDUSE TYPE = "USGS" FOUND 33  CATEGORIES 2  SEASONS WATER CATEGORY =  16  SNOW CATEGORY =  24
 INITIALIZE THREE Noah LSM RELATED TABLES
  LANDUSE TYPE = USGS FOUND 27  CATEGORIES
  INPUT SOIL TEXTURE CLASSIFICATION = STAS
  SOIL TEXTURE CLASSIFICATION = STAS FOUND 19  CATEGORIES
 *********************************************************************
 *             PROGRAM:WRF/CHEM V3.6 MODEL
 *                                                                   *
 *    PLEASE REPORT ANY BUGS TO WRF/CHEM HELP at                     *
 *                                                                   *
 *              wrfchemhelp.gsd@noaa.gov                             *
 *                                                                   *
 *********************************************************************
 WARNING: dust option 1 currently works only with the GOCART aerosol option.
 WARNING: sea salt option 1 currently works only with the GOCART aerosol option.
Timing for Writing wrfout_d02_2016-02-05_12:00:00 for domain        2:    2.19200 elapsed seconds
  mediation_integrate: med_read_wrf_chem_emissions: Open file wrfchemi_12z_d02
  HOURLY EMISSIONS UPDATE TIME         .0        .0
 mediation_integrate: med_read_wrf_chem_emissions: Read emissions for time 2016-02-05_12:00:00
 **WARNING** Time in input file not being checked **WARNING**
  Tile Strategy is not specified. Assuming 1D-Y
 WRF TILE   1 IS      1 IE     36 JS      1 JE     14
 WRF NUMBER OF TILES =   1
  photolysis_driver: called for domain  2
Timing for Writing wrfout_d03_2016-02-05_12:00:00 for domain        3:    1.79795 elapsed seconds
  mediation_integrate: med_read_wrf_chem_emissions: Open file wrfchemi_12z_d03
  HOURLY EMISSIONS UPDATE TIME         .0        .0
 mediation_integrate: med_read_wrf_chem_emissions: Read emissions for time 2016-02-05_12:00:00
 **WARNING** Time in input file not being checked **WARNING**
  Tile Strategy is not specified. Assuming 1D-Y
 WRF TILE   1 IS      1 IE     31 JS      1 JE     14
 WRF NUMBER OF TILES =   1
  photolysis_driver: called for domain  3
Timing for main: time 2016-02-05_12:00:13 on domain   3:    4.58139 elapsed seconds
Timing for main: time 2016-02-05_12:00:26 on domain   3:     .17977 elapsed seconds
Timing for main: time 2016-02-05_12:00:40 on domain   3:     .16917 elapsed seconds
Timing for Writing wrfout_d04_2016-02-05_12:00:00 for domain        4:    1.95198 elapsed seconds
  mediation_integrate: med_read_wrf_chem_emissions: Open file wrfchemi_12z_d04
  HOURLY EMISSIONS UPDATE TIME         .0        .0
 mediation_integrate: med_read_wrf_chem_emissions: Read emissions for time 2016-02-05_12:00:00
 **WARNING** Time in input file not being checked **WARNING**
  Tile Strategy is not specified. Assuming 1D-Y
 WRF TILE   1 IS      1 IE     22 JS      1 JE     22
 WRF NUMBER OF TILES =   1
  photolysis_driver: called for domain  4
Timing for main: time 2016-02-05_12:00:20 on domain   4:    5.25882 elapsed seconds
Timing for main: time 2016-02-05_12:00:40 on domain   4:     .16253 elapsed seconds
Timing for main: time 2016-02-05_12:00:40 on domain   2:   35.00579 elapsed seconds
Timing for main: time 2016-02-05_12:00:53 on domain   3:     .17803 elapsed seconds
Timing for main: time 2016-02-05_12:01:06 on domain   3:     .16668 elapsed seconds
Timing for main: time 2016-02-05_12:01:20 on domain   3:     .16696 elapsed seconds
Timing for main: time 2016-02-05_12:01:00 on domain   4:     .19501 elapsed seconds
Timing for main: time 2016-02-05_12:01:20 on domain   4:     .18901 elapsed seconds
Timing for main: time 2016-02-05_12:01:20 on domain   2:    1.49041 elapsed seconds
Timing for main: time 2016-02-05_12:01:33 on domain   3:     .17837 elapsed seconds
Timing for main: time 2016-02-05_12:01:46 on domain   3:     .16601 elapsed seconds
Timing for main: time 2016-02-05_12:02:00 on domain   3:     .16763 elapsed seconds
Timing for main: time 2016-02-05_12:01:40 on domain   4:     .19290 elapsed seconds
Timing for main: time 2016-02-05_12:02:00 on domain   4:     .18836 elapsed seconds
Timing for main: time 2016-02-05_12:02:00 on domain   2:    1.52608 elapsed seconds
Timing for main: time 2016-02-05_12:02:00 on domain   1:   54.79160 elapsed seconds
Timing for main: time 2016-02-05_12:02:13 on domain   3:     .18228 elapsed seconds
Timing for main: time 2016-02-05_12:02:26 on domain   3:     .17595 elapsed seconds
Timing for main: time 2016-02-05_12:02:40 on domain   3:     .17986 elapsed seconds
Timing for main: time 2016-02-05_12:02:20 on domain   4:     .19584 elapsed seconds
Timing for main: time 2016-02-05_12:02:40 on domain   4:     .20206 elapsed seconds
Timing for main: time 2016-02-05_12:02:40 on domain   2:    1.59808 elapsed seconds
Timing for main: time 2016-02-05_12:02:53 on domain   3:     .17842 elapsed seconds
Timing for main: time 2016-02-05_12:03:06 on domain   3:     .17639 elapsed seconds
Timing for main: time 2016-02-05_12:03:20 on domain   3:     .18032 elapsed seconds
Timing for main: time 2016-02-05_12:03:00 on domain   4:     .19658 elapsed seconds
Timing for main: time 2016-02-05_12:03:20 on domain   4:     .18842 elapsed seconds
Timing for main: time 2016-02-05_12:03:20 on domain   2:    1.56188 elapsed seconds
Timing for main: time 2016-02-05_12:03:33 on domain   3:     .17749 elapsed seconds
Timing for main: time 2016-02-05_12:03:46 on domain   3:     .16734 elapsed seconds
Timing for main: time 2016-02-05_12:04:00 on domain   3:     .16725 elapsed seconds
Timing for main: time 2016-02-05_12:03:40 on domain   4:     .19327 elapsed seconds
Timing for main: time 2016-02-05_12:04:00 on domain   4:     .18853 elapsed seconds
Timing for main: time 2016-02-05_12:04:00 on domain   2:    1.52607 elapsed seconds
Timing for main: time 2016-02-05_12:04:00 on domain   1:    4.99394 elapsed seconds
Timing for main: time 2016-02-05_12:04:13 on domain   3:     .17707 elapsed seconds
Timing for main: time 2016-02-05_12:04:26 on domain   3:     .16699 elapsed seconds
Timing for main: time 2016-02-05_12:04:40 on domain   3:     .16719 elapsed seconds
Timing for main: time 2016-02-05_12:04:20 on domain   4:     .19320 elapsed seconds
Timing for main: time 2016-02-05_12:04:40 on domain   4:     .18860 elapsed seconds
Timing for main: time 2016-02-05_12:04:40 on domain   2:    1.54243 elapsed seconds
Timing for main: time 2016-02-05_12:04:53 on domain   3:     .17764 elapsed seconds
Timing for main: time 2016-02-05_12:05:06 on domain   3:     .17422 elapsed seconds
Timing for main: time 2016-02-05_12:05:20 on domain   3:     .16734 elapsed seconds
Timing for main: time 2016-02-05_12:05:00 on domain   4:     .20152 elapsed seconds
Timing for main: time 2016-02-05_12:05:20 on domain   4:     .18883 elapsed seconds
Timing for main: time 2016-02-05_12:05:20 on domain   2:    1.54718 elapsed seconds
Timing for main: time 2016-02-05_12:05:33 on domain   3:     .17738 elapsed seconds
Timing for main: time 2016-02-05_12:05:46 on domain   3:     .16737 elapsed seconds
Timing for main: time 2016-02-05_12:06:00 on domain   3:     .16708 elapsed seconds
Timing for main: time 2016-02-05_12:05:40 on domain   4:     .19378 elapsed seconds
Timing for main: time 2016-02-05_12:06:00 on domain   4:     .19138 elapsed seconds
Timing for main: time 2016-02-05_12:06:00 on domain   2:    1.52642 elapsed seconds
Timing for main: time 2016-02-05_12:06:00 on domain   1:    4.95077 elapsed seconds
Timing for main: time 2016-02-05_12:06:13 on domain   3:     .17746 elapsed seconds
Timing for main: time 2016-02-05_12:06:26 on domain   3:     .16728 elapsed seconds
Timing for main: time 2016-02-05_12:06:40 on domain   3:     .16705 elapsed seconds
Timing for main: time 2016-02-05_12:06:20 on domain   4:     .19355 elapsed seconds
Timing for main: time 2016-02-05_12:06:40 on domain   4:     .19145 elapsed seconds
Timing for main: time 2016-02-05_12:06:40 on domain   2:    1.55095 elapsed seconds
Timing for main: time 2016-02-05_12:06:53 on domain   3:     .17763 elapsed seconds
Timing for main: time 2016-02-05_12:07:06 on domain   3:     .16701 elapsed seconds
Timing for main: time 2016-02-05_12:07:20 on domain   3:     .16661 elapsed seconds
Timing for main: time 2016-02-05_12:07:00 on domain   4:     .27242 elapsed seconds
Timing for main: time 2016-02-05_12:07:20 on domain   4:     .18879 elapsed seconds
Timing for main: time 2016-02-05_12:07:20 on domain   2:    1.59886 elapsed seconds
Timing for main: time 2016-02-05_12:07:33 on domain   3:     .17756 elapsed seconds
Timing for main: time 2016-02-05_12:07:46 on domain   3:     .16666 elapsed seconds
Timing for main: time 2016-02-05_12:08:00 on domain   3:     .17894 elapsed seconds
Timing for main: time 2016-02-05_12:07:40 on domain   4:     .19364 elapsed seconds
Timing for main: time 2016-02-05_12:08:00 on domain   4:     .18935 elapsed seconds
Timing for main: time 2016-02-05_12:08:00 on domain   2:    1.53824 elapsed seconds
Timing for main: time 2016-02-05_12:08:00 on domain   1:    5.01562 elapsed seconds
Timing for main: time 2016-02-05_12:08:13 on domain   3:     .17771 elapsed seconds
Timing for main: time 2016-02-05_12:08:26 on domain   3:     .16702 elapsed seconds
Timing for main: time 2016-02-05_12:08:40 on domain   3:     .16749 elapsed seconds
Timing for main: time 2016-02-05_12:08:20 on domain   4:     .19369 elapsed seconds
Timing for main: time 2016-02-05_12:08:40 on domain   4:     .18915 elapsed seconds
Timing for main: time 2016-02-05_12:08:40 on domain   2:    1.54764 elapsed seconds
Timing for main: time 2016-02-05_12:08:53 on domain   3:     .17801 elapsed seconds
Timing for main: time 2016-02-05_12:09:06 on domain   3:     .16645 elapsed seconds
Timing for main: time 2016-02-05_12:09:20 on domain   3:     .16743 elapsed seconds
Timing for main: time 2016-02-05_12:09:00 on domain   4:     .19431 elapsed seconds
Timing for main: time 2016-02-05_12:09:20 on domain   4:     .19203 elapsed seconds
Timing for main: time 2016-02-05_12:09:20 on domain   2:    1.52825 elapsed seconds
Timing for main: time 2016-02-05_12:09:33 on domain   3:     .17812 elapsed seconds
Timing for main: time 2016-02-05_12:09:46 on domain   3:     .16690 elapsed seconds
Timing for main: time 2016-02-05_12:10:00 on domain   3:     .16611 elapsed seconds
Timing for main: time 2016-02-05_12:09:40 on domain   4:     .19426 elapsed seconds
Timing for main: time 2016-02-05_12:10:00 on domain   4:     .19793 elapsed seconds
Timing for main: time 2016-02-05_12:10:00 on domain   2:    1.53319 elapsed seconds
Timing for main: time 2016-02-05_12:10:00 on domain   1:    4.93646 elapsed seconds
Timing for main: time 2016-02-05_12:10:13 on domain   3:     .18512 elapsed seconds
Timing for main: time 2016-02-05_12:10:26 on domain   3:     .16962 elapsed seconds
Timing for main: time 2016-02-05_12:10:40 on domain   3:     .16596 elapsed seconds
Timing for main: time 2016-02-05_12:10:20 on domain   4:     .21400 elapsed seconds
Timing for main: time 2016-02-05_12:10:40 on domain   4:     .26967 elapsed seconds
Timing for main: time 2016-02-05_12:10:40 on domain   2:    1.66112 elapsed seconds
Timing for main: time 2016-02-05_12:10:53 on domain   3:     .17788 elapsed seconds
Timing for main: time 2016-02-05_12:11:06 on domain   3:     .16667 elapsed seconds
Timing for main: time 2016-02-05_12:11:20 on domain   3:     .16661 elapsed seconds
Timing for main: time 2016-02-05_12:11:00 on domain   4:     .19365 elapsed seconds
Timing for main: time 2016-02-05_12:11:20 on domain   4:     .18955 elapsed seconds
Timing for main: time 2016-02-05_12:11:20 on domain   2:    1.52392 elapsed seconds
Timing for main: time 2016-02-05_12:11:33 on domain   3:     .17759 elapsed seconds
Timing for main: time 2016-02-05_12:11:46 on domain   3:     .16652 elapsed seconds
Timing for main: time 2016-02-05_12:12:00 on domain   3:     .16653 elapsed seconds
Timing for main: time 2016-02-05_12:11:40 on domain   4:     .19421 elapsed seconds
Timing for main: time 2016-02-05_12:12:00 on domain   4:     .19593 elapsed seconds
Timing for main: time 2016-02-05_12:12:00 on domain   2:    1.53103 elapsed seconds
Timing for main: time 2016-02-05_12:12:00 on domain   1:    5.04885 elapsed seconds
Timing for main: time 2016-02-05_12:12:13 on domain   3:     .17810 elapsed seconds
Timing for main: time 2016-02-05_12:12:26 on domain   3:     .16709 elapsed seconds
Timing for main: time 2016-02-05_12:12:40 on domain   3:     .16624 elapsed seconds
Timing for main: time 2016-02-05_12:12:20 on domain   4:     .19417 elapsed seconds
Timing for main: time 2016-02-05_12:12:40 on domain   4:     .18981 elapsed seconds
Timing for main: time 2016-02-05_12:12:40 on domain   2:    1.54362 elapsed seconds
Timing for main: time 2016-02-05_12:12:53 on domain   3:     .17780 elapsed seconds
Timing for main: time 2016-02-05_12:13:06 on domain   3:     .16669 elapsed seconds
Timing for main: time 2016-02-05_12:13:20 on domain   3:     .16676 elapsed seconds
Timing for main: time 2016-02-05_12:13:00 on domain   4:     .19423 elapsed seconds
Timing for main: time 2016-02-05_12:13:20 on domain   4:     .19122 elapsed seconds
Timing for main: time 2016-02-05_12:13:20 on domain   2:    1.52675 elapsed seconds
Timing for main: time 2016-02-05_12:13:33 on domain   3:     .17815 elapsed seconds
Timing for main: time 2016-02-05_12:13:46 on domain   3:     .16681 elapsed seconds
Timing for main: time 2016-02-05_12:14:00 on domain   3:     .16731 elapsed seconds
Timing for main: time 2016-02-05_12:13:40 on domain   4:     .19459 elapsed seconds
Timing for main: time 2016-02-05_12:14:00 on domain   4:     .18971 elapsed seconds
Timing for main: time 2016-02-05_12:14:00 on domain   2:    1.52598 elapsed seconds
Timing for main: time 2016-02-05_12:14:00 on domain   1:    4.92191 elapsed seconds
Timing for main: time 2016-02-05_12:14:13 on domain   3:     .17829 elapsed seconds
Timing for main: time 2016-02-05_12:14:26 on domain   3:     .16894 elapsed seconds
Timing for main: time 2016-02-05_12:14:40 on domain   3:     .16709 elapsed seconds
Timing for main: time 2016-02-05_12:14:20 on domain   4:     .19572 elapsed seconds
Timing for main: time 2016-02-05_12:14:40 on domain   4:     .18989 elapsed seconds
Timing for main: time 2016-02-05_12:14:40 on domain   2:    1.54859 elapsed seconds
Timing for main: time 2016-02-05_12:14:53 on domain   3:     .17796 elapsed seconds
Timing for main: time 2016-02-05_12:15:06 on domain   3:     .16693 elapsed seconds
Timing for main: time 2016-02-05_12:15:20 on domain   3:     .17408 elapsed seconds
Timing for main: time 2016-02-05_12:15:00 on domain   4:     .20289 elapsed seconds
Timing for main: time 2016-02-05_12:15:20 on domain   4:     .19235 elapsed seconds
Timing for main: time 2016-02-05_12:15:20 on domain   2:    1.54413 elapsed seconds
Timing for main: time 2016-02-05_12:15:33 on domain   3:     .17821 elapsed seconds
Timing for main: time 2016-02-05_12:15:46 on domain   3:     .16668 elapsed seconds
Timing for main: time 2016-02-05_12:16:00 on domain   3:     .16708 elapsed seconds
Timing for main: time 2016-02-05_12:15:40 on domain   4:     .19464 elapsed seconds
Timing for main: time 2016-02-05_12:16:00 on domain   4:     .18997 elapsed seconds
Timing for main: time 2016-02-05_12:16:00 on domain   2:    1.53670 elapsed seconds
Timing for main: time 2016-02-05_12:16:00 on domain   1:    4.95475 elapsed seconds
Timing for main: time 2016-02-05_12:16:13 on domain   3:     .17820 elapsed seconds
Timing for main: time 2016-02-05_12:16:26 on domain   3:     .16698 elapsed seconds
Timing for main: time 2016-02-05_12:16:40 on domain   3:     .16738 elapsed seconds
Timing for main: time 2016-02-05_12:16:20 on domain   4:     .19470 elapsed seconds
Timing for main: time 2016-02-05_12:16:40 on domain   4:     .18983 elapsed seconds
Timing for main: time 2016-02-05_12:16:40 on domain   2:    1.54481 elapsed seconds
Timing for main: time 2016-02-05_12:16:53 on domain   3:     .17732 elapsed seconds
Timing for main: time 2016-02-05_12:17:06 on domain   3:     .16826 elapsed seconds
Timing for main: time 2016-02-05_12:17:20 on domain   3:     .16715 elapsed seconds
Timing for main: time 2016-02-05_12:17:00 on domain   4:     .19506 elapsed seconds
Timing for main: time 2016-02-05_12:17:20 on domain   4:     .18968 elapsed seconds
Timing for main: time 2016-02-05_12:17:20 on domain   2:    1.52650 elapsed seconds
Timing for main: time 2016-02-05_12:17:33 on domain   3:     .17792 elapsed seconds
Timing for main: time 2016-02-05_12:17:46 on domain   3:     .16652 elapsed seconds
Timing for main: time 2016-02-05_12:18:00 on domain   3:     .16872 elapsed seconds
Timing for main: time 2016-02-05_12:17:40 on domain   4:     .19449 elapsed seconds
Timing for main: time 2016-02-05_12:18:00 on domain   4:     .18950 elapsed seconds
Timing for main: time 2016-02-05_12:18:00 on domain   2:    1.52577 elapsed seconds
Timing for main: time 2016-02-05_12:18:00 on domain   1:    4.93075 elapsed seconds
Timing for main: time 2016-02-05_12:18:13 on domain   3:     .17794 elapsed seconds
Timing for main: time 2016-02-05_12:18:26 on domain   3:     .16696 elapsed seconds
Timing for main: time 2016-02-05_12:18:40 on domain   3:     .16702 elapsed seconds
Timing for main: time 2016-02-05_12:18:20 on domain   4:     .19462 elapsed seconds
Timing for main: time 2016-02-05_12:18:40 on domain   4:     .19000 elapsed seconds
Timing for main: time 2016-02-05_12:18:40 on domain   2:    1.54400 elapsed seconds
Timing for main: time 2016-02-05_12:18:53 on domain   3:     .17755 elapsed seconds
Timing for main: time 2016-02-05_12:19:06 on domain   3:     .16735 elapsed seconds
Timing for main: time 2016-02-05_12:19:20 on domain   3:     .16726 elapsed seconds
Timing for main: time 2016-02-05_12:19:00 on domain   4:     .19465 elapsed seconds
Timing for main: time 2016-02-05_12:19:20 on domain   4:     .19282 elapsed seconds
Timing for main: time 2016-02-05_12:19:20 on domain   2:    1.52903 elapsed seconds
Timing for main: time 2016-02-05_12:19:33 on domain   3:     .17813 elapsed seconds
Timing for main: time 2016-02-05_12:19:46 on domain   3:     .16803 elapsed seconds
Timing for main: time 2016-02-05_12:20:00 on domain   3:     .16652 elapsed seconds
Timing for main: time 2016-02-05_12:19:40 on domain   4:     .19500 elapsed seconds
Timing for main: time 2016-02-05_12:20:00 on domain   4:     .19805 elapsed seconds
Timing for main: time 2016-02-05_12:20:00 on domain   2:    1.53908 elapsed seconds
Timing for main: time 2016-02-05_12:20:00 on domain   1:    4.93819 elapsed seconds
Timing for main: time 2016-02-05_12:20:13 on domain   3:     .17940 elapsed seconds
Timing for main: time 2016-02-05_12:20:26 on domain   3:     .17389 elapsed seconds
Timing for main: time 2016-02-05_12:20:40 on domain   3:     .16702 elapsed seconds
Timing for main: time 2016-02-05_12:20:20 on domain   4:     .19777 elapsed seconds
Timing for main: time 2016-02-05_12:20:40 on domain   4:     .18973 elapsed seconds
Timing for main: time 2016-02-05_12:20:40 on domain   2:    1.55724 elapsed seconds
Timing for main: time 2016-02-05_12:20:53 on domain   3:     .17771 elapsed seconds
Timing for main: time 2016-02-05_12:21:06 on domain   3:     .16771 elapsed seconds
Timing for main: time 2016-02-05_12:21:20 on domain   3:     .16689 elapsed seconds
Timing for main: time 2016-02-05_12:21:00 on domain   4:     .19474 elapsed seconds
Timing for main: time 2016-02-05_12:21:20 on domain   4:     .19157 elapsed seconds
Timing for main: time 2016-02-05_12:21:20 on domain   2:    1.53759 elapsed seconds
Timing for main: time 2016-02-05_12:21:33 on domain   3:     .17826 elapsed seconds
Timing for main: time 2016-02-05_12:21:46 on domain   3:     .16694 elapsed seconds
Timing for main: time 2016-02-05_12:22:00 on domain   3:     .16708 elapsed seconds
Timing for main: time 2016-02-05_12:21:40 on domain   4:     .19466 elapsed seconds
Timing for main: time 2016-02-05_12:22:00 on domain   4:     .18960 elapsed seconds
Timing for main: time 2016-02-05_12:22:00 on domain   2:    1.52822 elapsed seconds
Timing for main: time 2016-02-05_12:22:00 on domain   1:    4.95053 elapsed seconds
Timing for main: time 2016-02-05_12:22:13 on domain   3:     .17767 elapsed seconds
Timing for main: time 2016-02-05_12:22:26 on domain   3:     .16689 elapsed seconds
Timing for main: time 2016-02-05_12:22:40 on domain   3:     .17059 elapsed seconds
Timing for main: time 2016-02-05_12:22:20 on domain   4:     .19393 elapsed seconds
Timing for main: time 2016-02-05_12:22:40 on domain   4:     .18977 elapsed seconds
Timing for main: time 2016-02-05_12:22:40 on domain   2:    1.54761 elapsed seconds
Timing for main: time 2016-02-05_12:22:53 on domain   3:     .17554 elapsed seconds
Timing for main: time 2016-02-05_12:23:06 on domain   3:     .16677 elapsed seconds
Timing for main: time 2016-02-05_12:23:20 on domain   3:     .16714 elapsed seconds
Timing for main: time 2016-02-05_12:23:00 on domain   4:     .19429 elapsed seconds
Timing for main: time 2016-02-05_12:23:20 on domain   4:     .19115 elapsed seconds
Timing for main: time 2016-02-05_12:23:20 on domain   2:    1.52853 elapsed seconds
Timing for main: time 2016-02-05_12:23:33 on domain   3:     .17831 elapsed seconds
Timing for main: time 2016-02-05_12:23:46 on domain   3:     .16728 elapsed seconds
Timing for main: time 2016-02-05_12:24:00 on domain   3:     .16725 elapsed seconds
Timing for main: time 2016-02-05_12:23:40 on domain   4:     .19396 elapsed seconds
Timing for main: time 2016-02-05_12:24:00 on domain   4:     .18968 elapsed seconds
Timing for main: time 2016-02-05_12:24:00 on domain   2:    1.52479 elapsed seconds
Timing for main: time 2016-02-05_12:24:00 on domain   1:    4.93386 elapsed seconds
Timing for main: time 2016-02-05_12:24:13 on domain   3:     .17840 elapsed seconds
Timing for main: time 2016-02-05_12:24:26 on domain   3:     .16757 elapsed seconds
Timing for main: time 2016-02-05_12:24:40 on domain   3:     .16644 elapsed seconds
Timing for main: time 2016-02-05_12:24:20 on domain   4:     .19412 elapsed seconds
Timing for main: time 2016-02-05_12:24:40 on domain   4:     .18956 elapsed seconds
Timing for main: time 2016-02-05_12:24:40 on domain   2:    1.54443 elapsed seconds
Timing for main: time 2016-02-05_12:24:53 on domain   3:     .17803 elapsed seconds
Timing for main: time 2016-02-05_12:25:06 on domain   3:     .16694 elapsed seconds
Timing for main: time 2016-02-05_12:25:20 on domain   3:     .20854 elapsed seconds
Timing for main: time 2016-02-05_12:25:00 on domain   4:     .20284 elapsed seconds
Timing for main: time 2016-02-05_12:25:20 on domain   4:     .19145 elapsed seconds
Timing for main: time 2016-02-05_12:25:20 on domain   2:    1.58768 elapsed seconds
Timing for main: time 2016-02-05_12:25:33 on domain   3:     .18562 elapsed seconds
Timing for main: time 2016-02-05_12:25:46 on domain   3:     .16682 elapsed seconds
Timing for main: time 2016-02-05_12:26:00 on domain   3:     .16709 elapsed seconds
Timing for main: time 2016-02-05_12:25:40 on domain   4:     .19427 elapsed seconds
Timing for main: time 2016-02-05_12:26:00 on domain   4:     .18938 elapsed seconds
Timing for main: time 2016-02-05_12:26:00 on domain   2:    1.53312 elapsed seconds
Timing for main: time 2016-02-05_12:26:00 on domain   1:    5.04858 elapsed seconds
Timing for main: time 2016-02-05_12:26:13 on domain   3:     .17803 elapsed seconds
Timing for main: time 2016-02-05_12:26:26 on domain   3:     .16702 elapsed seconds
Timing for main: time 2016-02-05_12:26:40 on domain   3:     .16707 elapsed seconds
Timing for main: time 2016-02-05_12:26:20 on domain   4:     .19432 elapsed seconds
Timing for main: time 2016-02-05_12:26:40 on domain   4:     .18979 elapsed seconds
Timing for main: time 2016-02-05_12:26:40 on domain   2:    1.55276 elapsed seconds
Timing for main: time 2016-02-05_12:26:53 on domain   3:     .17591 elapsed seconds
Timing for main: time 2016-02-05_12:27:06 on domain   3:     .16656 elapsed seconds
Timing for main: time 2016-02-05_12:27:20 on domain   3:     .16672 elapsed seconds
Timing for main: time 2016-02-05_12:27:00 on domain   4:     .19448 elapsed seconds
Timing for main: time 2016-02-05_12:27:20 on domain   4:     .19062 elapsed seconds
Timing for main: time 2016-02-05_12:27:20 on domain   2:    1.52854 elapsed seconds
Timing for main: time 2016-02-05_12:27:33 on domain   3:     .17943 elapsed seconds
Timing for main: time 2016-02-05_12:27:46 on domain   3:     .16677 elapsed seconds
Timing for main: time 2016-02-05_12:28:00 on domain   3:     .16723 elapsed seconds
Timing for main: time 2016-02-05_12:27:40 on domain   4:     .19482 elapsed seconds
Timing for main: time 2016-02-05_12:28:00 on domain   4:     .28151 elapsed seconds
Timing for main: time 2016-02-05_12:28:00 on domain   2:    1.61942 elapsed seconds
Timing for main: time 2016-02-05_12:28:00 on domain   1:    5.02692 elapsed seconds
  photolysis_driver: called for domain  1
Timing for main: time 2016-02-05_12:28:13 on domain   3:     .17735 elapsed seconds
Timing for main: time 2016-02-05_12:28:26 on domain   3:     .16717 elapsed seconds
Timing for main: time 2016-02-05_12:28:40 on domain   3:     .16739 elapsed seconds
Timing for main: time 2016-02-05_12:28:20 on domain   4:     .19412 elapsed seconds
Timing for main: time 2016-02-05_12:28:40 on domain   4:     .18963 elapsed seconds
Timing for main: time 2016-02-05_12:28:40 on domain   2:    1.54493 elapsed seconds
Timing for main: time 2016-02-05_12:28:53 on domain   3:     .17813 elapsed seconds
Timing for main: time 2016-02-05_12:29:06 on domain   3:     .16712 elapsed seconds
Timing for main: time 2016-02-05_12:29:20 on domain   3:     .16649 elapsed seconds
Timing for main: time 2016-02-05_12:29:00 on domain   4:     .19464 elapsed seconds
Timing for main: time 2016-02-05_12:29:20 on domain   4:     .18953 elapsed seconds
Timing for main: time 2016-02-05_12:29:20 on domain   2:    1.52643 elapsed seconds
  photolysis_driver: called for domain  2
Timing for main: time 2016-02-05_12:29:33 on domain   3:     .17776 elapsed seconds
Timing for main: time 2016-02-05_12:29:46 on domain   3:     .16660 elapsed seconds
  photolysis_driver: called for domain  3
Timing for main: time 2016-02-05_12:30:00 on domain   3:     .97471 elapsed seconds
Timing for main: time 2016-02-05_12:29:40 on domain   4:     .19395 elapsed seconds
  photolysis_driver: called for domain  4
Timing for main: time 2016-02-05_12:30:00 on domain   4:    1.09026 elapsed seconds
Timing for main: time 2016-02-05_12:30:00 on domain   2:    4.16700 elapsed seconds
Timing for main: time 2016-02-05_12:30:00 on domain   1:    8.14403 elapsed seconds
Timing for main: time 2016-02-05_12:30:13 on domain   3:     .33653 elapsed seconds
Timing for main: time 2016-02-05_12:30:26 on domain   3:     .16544 elapsed seconds
Timing for main: time 2016-02-05_12:30:40 on domain   3:     .17321 elapsed seconds
Timing for main: time 2016-02-05_12:30:20 on domain   4:     .37174 elapsed seconds
Timing for main: time 2016-02-05_12:30:40 on domain   4:     .18871 elapsed seconds
Timing for main: time 2016-02-05_12:30:40 on domain   2:    2.07141 elapsed seconds
Timing for main: time 2016-02-05_12:30:53 on domain   3:     .17682 elapsed seconds
Timing for main: time 2016-02-05_12:31:06 on domain   3:     .16581 elapsed seconds
Timing for main: time 2016-02-05_12:31:20 on domain   3:     .16586 elapsed seconds
Timing for main: time 2016-02-05_12:31:00 on domain   4:     .19324 elapsed seconds
Timing for main: time 2016-02-05_12:31:20 on domain   4:     .18869 elapsed seconds
Timing for main: time 2016-02-05_12:31:20 on domain   2:    1.52236 elapsed seconds
Timing for main: time 2016-02-05_12:31:33 on domain   3:     .17701 elapsed seconds
Timing for main: time 2016-02-05_12:31:46 on domain   3:     .16614 elapsed seconds
Timing for main: time 2016-02-05_12:32:00 on domain   3:     .16599 elapsed seconds
Timing for main: time 2016-02-05_12:31:40 on domain   4:     .19311 elapsed seconds
Timing for main: time 2016-02-05_12:32:00 on domain   4:     .19059 elapsed seconds
Timing for main: time 2016-02-05_12:32:00 on domain   2:    1.53100 elapsed seconds
Timing for main: time 2016-02-05_12:32:00 on domain   1:    5.58746 elapsed seconds
Timing for main: time 2016-02-05_12:32:13 on domain   3:     .17659 elapsed seconds
Timing for main: time 2016-02-05_12:32:26 on domain   3:     .16561 elapsed seconds
Timing for main: time 2016-02-05_12:32:40 on domain   3:     .16544 elapsed seconds
Timing for main: time 2016-02-05_12:32:20 on domain   4:     .19365 elapsed seconds
Timing for main: time 2016-02-05_12:32:40 on domain   4:     .18957 elapsed seconds
Timing for main: time 2016-02-05_12:32:40 on domain   2:    1.53884 elapsed seconds
Timing for main: time 2016-02-05_12:32:53 on domain   3:     .17982 elapsed seconds
Timing for main: time 2016-02-05_12:33:06 on domain   3:     .16570 elapsed seconds
Timing for main: time 2016-02-05_12:33:20 on domain   3:     .16571 elapsed seconds
Timing for main: time 2016-02-05_12:33:00 on domain   4:     .19564 elapsed seconds
Timing for main: time 2016-02-05_12:33:20 on domain   4:     .18883 elapsed seconds
Timing for main: time 2016-02-05_12:33:20 on domain   2:    1.52557 elapsed seconds
Timing for main: time 2016-02-05_12:33:33 on domain   3:     .17682 elapsed seconds
Timing for main: time 2016-02-05_12:33:46 on domain   3:     .16526 elapsed seconds
Timing for main: time 2016-02-05_12:34:00 on domain   3:     .16569 elapsed seconds
Timing for main: time 2016-02-05_12:33:40 on domain   4:     .19489 elapsed seconds
Timing for main: time 2016-02-05_12:34:00 on domain   4:     .18785 elapsed seconds
Timing for main: time 2016-02-05_12:34:00 on domain   2:    1.52024 elapsed seconds
Timing for main: time 2016-02-05_12:34:00 on domain   1:    4.91080 elapsed seconds
Timing for main: time 2016-02-05_12:34:13 on domain   3:     .17617 elapsed seconds
Timing for main: time 2016-02-05_12:34:26 on domain   3:     .16591 elapsed seconds
Timing for main: time 2016-02-05_12:34:40 on domain   3:     .16581 elapsed seconds
Timing for main: time 2016-02-05_12:34:20 on domain   4:     .19542 elapsed seconds
Timing for main: time 2016-02-05_12:34:40 on domain   4:     .18825 elapsed seconds
Timing for main: time 2016-02-05_12:34:40 on domain   2:    1.53959 elapsed seconds
Timing for main: time 2016-02-05_12:34:53 on domain   3:     .17888 elapsed seconds
Timing for main: time 2016-02-05_12:35:06 on domain   3:     .16497 elapsed seconds
Timing for main: time 2016-02-05_12:35:20 on domain   3:     .16555 elapsed seconds
Timing for main: time 2016-02-05_12:35:00 on domain   4:     .20155 elapsed seconds
Timing for main: time 2016-02-05_12:35:20 on domain   4:     .18883 elapsed seconds
Timing for main: time 2016-02-05_12:35:20 on domain   2:    1.52853 elapsed seconds
Timing for main: time 2016-02-05_12:35:33 on domain   3:     .17624 elapsed seconds
Timing for main: time 2016-02-05_12:35:46 on domain   3:     .17265 elapsed seconds
Timing for main: time 2016-02-05_12:36:00 on domain   3:     .16514 elapsed seconds
Timing for main: time 2016-02-05_12:35:40 on domain   4:     .19399 elapsed seconds
Timing for main: time 2016-02-05_12:36:00 on domain   4:     .18911 elapsed seconds
Timing for main: time 2016-02-05_12:36:00 on domain   2:    1.52681 elapsed seconds
Timing for main: time 2016-02-05_12:36:00 on domain   1:    4.92823 elapsed seconds
Timing for main: time 2016-02-05_12:36:13 on domain   3:     .20443 elapsed seconds
Timing for main: time 2016-02-05_12:36:26 on domain   3:     .17651 elapsed seconds
Timing for main: time 2016-02-05_12:36:40 on domain   3:     .16491 elapsed seconds
Timing for main: time 2016-02-05_12:36:20 on domain   4:     .19316 elapsed seconds
Timing for main: time 2016-02-05_12:36:40 on domain   4:     .19100 elapsed seconds
Timing for main: time 2016-02-05_12:36:40 on domain   2:    1.57721 elapsed seconds
Timing for main: time 2016-02-05_12:36:53 on domain   3:     .17636 elapsed seconds
Timing for main: time 2016-02-05_12:37:06 on domain   3:     .16556 elapsed seconds
Timing for main: time 2016-02-05_12:37:20 on domain   3:     .16663 elapsed seconds
Timing for main: time 2016-02-05_12:37:00 on domain   4:     .19313 elapsed seconds
Timing for main: time 2016-02-05_12:37:20 on domain   4:     .19047 elapsed seconds
Timing for main: time 2016-02-05_12:37:20 on domain   2:    1.53039 elapsed seconds
Timing for main: time 2016-02-05_12:37:33 on domain   3:     .20470 elapsed seconds
Timing for main: time 2016-02-05_12:37:46 on domain   3:     .23219 elapsed seconds
Timing for main: time 2016-02-05_12:38:00 on domain   3:     .16536 elapsed seconds
Timing for main: time 2016-02-05_12:37:40 on domain   4:     .19334 elapsed seconds
Timing for main: time 2016-02-05_12:38:00 on domain   4:     .18837 elapsed seconds
Timing for main: time 2016-02-05_12:38:00 on domain   2:    1.61441 elapsed seconds
Timing for main: time 2016-02-05_12:38:00 on domain   1:    5.04993 elapsed seconds
Timing for main: time 2016-02-05_12:38:13 on domain   3:     .17631 elapsed seconds
Timing for main: time 2016-02-05_12:38:26 on domain   3:     .16514 elapsed seconds
Timing for main: time 2016-02-05_12:38:40 on domain   3:     .16488 elapsed seconds
Timing for main: time 2016-02-05_12:38:20 on domain   4:     .19274 elapsed seconds
Timing for main: time 2016-02-05_12:38:40 on domain   4:     .18849 elapsed seconds
Timing for main: time 2016-02-05_12:38:40 on domain   2:    1.53533 elapsed seconds
Timing for main: time 2016-02-05_12:38:53 on domain   3:     .17708 elapsed seconds
Timing for main: time 2016-02-05_12:39:06 on domain   3:     .16476 elapsed seconds
Timing for main: time 2016-02-05_12:39:20 on domain   3:     .16491 elapsed seconds
Timing for main: time 2016-02-05_12:39:00 on domain   4:     .19330 elapsed seconds
Timing for main: time 2016-02-05_12:39:20 on domain   4:     .18881 elapsed seconds
Timing for main: time 2016-02-05_12:39:20 on domain   2:    1.51898 elapsed seconds
Timing for main: time 2016-02-05_12:39:33 on domain   3:     .17612 elapsed seconds
Timing for main: time 2016-02-05_12:39:46 on domain   3:     .16619 elapsed seconds
Timing for main: time 2016-02-05_12:40:00 on domain   3:     .16468 elapsed seconds
Timing for main: time 2016-02-05_12:39:40 on domain   4:     .19322 elapsed seconds
Timing for main: time 2016-02-05_12:40:00 on domain   4:     .19697 elapsed seconds
Timing for main: time 2016-02-05_12:40:00 on domain   2:    1.52703 elapsed seconds
Timing for main: time 2016-02-05_12:40:00 on domain   1:    4.90809 elapsed seconds
Timing for main: time 2016-02-05_12:40:13 on domain   3:     .20410 elapsed seconds
Timing for main: time 2016-02-05_12:40:26 on domain   3:     .19373 elapsed seconds
Timing for main: time 2016-02-05_12:40:40 on domain   3:     .16497 elapsed seconds
Timing for main: time 2016-02-05_12:40:20 on domain   4:     .19376 elapsed seconds
Timing for main: time 2016-02-05_12:40:40 on domain   4:     .19080 elapsed seconds
Timing for main: time 2016-02-05_12:40:40 on domain   2:    1.59552 elapsed seconds
Timing for main: time 2016-02-05_12:40:53 on domain   3:     .18415 elapsed seconds
Timing for main: time 2016-02-05_12:41:06 on domain   3:     .16458 elapsed seconds
Timing for main: time 2016-02-05_12:41:20 on domain   3:     .16660 elapsed seconds
Timing for main: time 2016-02-05_12:41:00 on domain   4:     .19317 elapsed seconds
Timing for main: time 2016-02-05_12:41:20 on domain   4:     .19113 elapsed seconds
Timing for main: time 2016-02-05_12:41:20 on domain   2:    1.52951 elapsed seconds
Timing for main: time 2016-02-05_12:41:33 on domain   3:     .17632 elapsed seconds
Timing for main: time 2016-02-05_12:41:46 on domain   3:     .16485 elapsed seconds
Timing for main: time 2016-02-05_12:42:00 on domain   3:     .16502 elapsed seconds
Timing for main: time 2016-02-05_12:41:40 on domain   4:     .19328 elapsed seconds
Timing for main: time 2016-02-05_12:42:00 on domain   4:     .19094 elapsed seconds
Timing for main: time 2016-02-05_12:42:00 on domain   2:    1.52036 elapsed seconds
Timing for main: time 2016-02-05_12:42:00 on domain   1:    4.98033 elapsed seconds
Timing for main: time 2016-02-05_12:42:13 on domain   3:     .17795 elapsed seconds
Timing for main: time 2016-02-05_12:42:26 on domain   3:     .17471 elapsed seconds
Timing for main: time 2016-02-05_12:42:40 on domain   3:     .16455 elapsed seconds
Timing for main: time 2016-02-05_12:42:20 on domain   4:     .19314 elapsed seconds
Timing for main: time 2016-02-05_12:42:40 on domain   4:     .18861 elapsed seconds
Timing for main: time 2016-02-05_12:42:40 on domain   2:    1.56934 elapsed seconds
Timing for main: time 2016-02-05_12:42:53 on domain   3:     .17760 elapsed seconds
Timing for main: time 2016-02-05_12:43:06 on domain   3:     .16470 elapsed seconds
Timing for main: time 2016-02-05_12:43:20 on domain   3:     .16508 elapsed seconds
Timing for main: time 2016-02-05_12:43:00 on domain   4:     .19303 elapsed seconds
Timing for main: time 2016-02-05_12:43:20 on domain   4:     .19328 elapsed seconds
Timing for main: time 2016-02-05_12:43:20 on domain   2:    1.54112 elapsed seconds
Timing for main: time 2016-02-05_12:43:33 on domain   3:     .17832 elapsed seconds
Timing for main: time 2016-02-05_12:43:46 on domain   3:     .16532 elapsed seconds
Timing for main: time 2016-02-05_12:44:00 on domain   3:     .16487 elapsed seconds
Timing for main: time 2016-02-05_12:43:40 on domain   4:     .23321 elapsed seconds
Timing for main: time 2016-02-05_12:44:00 on domain   4:     .25578 elapsed seconds
Timing for main: time 2016-02-05_12:44:00 on domain   2:    1.62725 elapsed seconds
Timing for main: time 2016-02-05_12:44:00 on domain   1:    5.06421 elapsed seconds
Timing for main: time 2016-02-05_12:44:13 on domain   3:     .17718 elapsed seconds
Timing for main: time 2016-02-05_12:44:26 on domain   3:     .16496 elapsed seconds
Timing for main: time 2016-02-05_12:44:40 on domain   3:     .16483 elapsed seconds
Timing for main: time 2016-02-05_12:44:20 on domain   4:     .19315 elapsed seconds
Timing for main: time 2016-02-05_12:44:40 on domain   4:     .19092 elapsed seconds
Timing for main: time 2016-02-05_12:44:40 on domain   2:    1.53853 elapsed seconds
Timing for main: time 2016-02-05_12:44:53 on domain   3:     .17627 elapsed seconds
Timing for main: time 2016-02-05_12:45:06 on domain   3:     .16788 elapsed seconds
Timing for main: time 2016-02-05_12:45:20 on domain   3:     .16499 elapsed seconds
Timing for main: time 2016-02-05_12:45:00 on domain   4:     .20128 elapsed seconds
Timing for main: time 2016-02-05_12:45:20 on domain   4:     .19015 elapsed seconds
Timing for main: time 2016-02-05_12:45:20 on domain   2:    1.53089 elapsed seconds
Timing for main: time 2016-02-05_12:45:33 on domain   3:     .17606 elapsed seconds
Timing for main: time 2016-02-05_12:45:46 on domain   3:     .16498 elapsed seconds
Timing for main: time 2016-02-05_12:46:00 on domain   3:     .17259 elapsed seconds
Timing for main: time 2016-02-05_12:45:40 on domain   4:     .19347 elapsed seconds
Timing for main: time 2016-02-05_12:46:00 on domain   4:     .19080 elapsed seconds
Timing for main: time 2016-02-05_12:46:00 on domain   2:    1.52799 elapsed seconds
Timing for main: time 2016-02-05_12:46:00 on domain   1:    4.92592 elapsed seconds
Timing for main: time 2016-02-05_12:46:13 on domain   3:     .17663 elapsed seconds
Timing for main: time 2016-02-05_12:46:26 on domain   3:     .16509 elapsed seconds
Timing for main: time 2016-02-05_12:46:40 on domain   3:     .16476 elapsed seconds
Timing for main: time 2016-02-05_12:46:20 on domain   4:     .19363 elapsed seconds
Timing for main: time 2016-02-05_12:46:40 on domain   4:     .18933 elapsed seconds
Timing for main: time 2016-02-05_12:46:40 on domain   2:    1.53696 elapsed seconds
Timing for main: time 2016-02-05_12:46:53 on domain   3:     .17625 elapsed seconds
Timing for main: time 2016-02-05_12:47:06 on domain   3:     .17525 elapsed seconds
Timing for main: time 2016-02-05_12:47:20 on domain   3:     .16631 elapsed seconds
Timing for main: time 2016-02-05_12:47:00 on domain   4:     .19308 elapsed seconds
Timing for main: time 2016-02-05_12:47:20 on domain   4:     .18871 elapsed seconds
Timing for main: time 2016-02-05_12:47:20 on domain   2:    1.52982 elapsed seconds
Timing for main: time 2016-02-05_12:47:33 on domain   3:     .17639 elapsed seconds
Timing for main: time 2016-02-05_12:47:46 on domain   3:     .16461 elapsed seconds
Timing for main: time 2016-02-05_12:48:00 on domain   3:     .16598 elapsed seconds
Timing for main: time 2016-02-05_12:47:40 on domain   4:     .19313 elapsed seconds
Timing for main: time 2016-02-05_12:48:00 on domain   4:     .18976 elapsed seconds
Timing for main: time 2016-02-05_12:48:00 on domain   2:    1.52806 elapsed seconds
Timing for main: time 2016-02-05_12:48:00 on domain   1:    4.92732 elapsed seconds
Timing for main: time 2016-02-05_12:48:13 on domain   3:     .17669 elapsed seconds
Timing for main: time 2016-02-05_12:48:26 on domain   3:     .16508 elapsed seconds
Timing for main: time 2016-02-05_12:48:40 on domain   3:     .16451 elapsed seconds
Timing for main: time 2016-02-05_12:48:20 on domain   4:     .19341 elapsed seconds
Timing for main: time 2016-02-05_12:48:40 on domain   4:     .18898 elapsed seconds
Timing for main: time 2016-02-05_12:48:40 on domain   2:    1.53552 elapsed seconds
Timing for main: time 2016-02-05_12:48:53 on domain   3:     .17696 elapsed seconds
Timing for main: time 2016-02-05_12:49:06 on domain   3:     .16559 elapsed seconds
Timing for main: time 2016-02-05_12:49:20 on domain   3:     .16461 elapsed seconds
Timing for main: time 2016-02-05_12:49:00 on domain   4:     .19352 elapsed seconds
Timing for main: time 2016-02-05_12:49:20 on domain   4:     .18835 elapsed seconds
Timing for main: time 2016-02-05_12:49:20 on domain   2:    1.52012 elapsed seconds
Timing for main: time 2016-02-05_12:49:33 on domain   3:     .17433 elapsed seconds
Timing for main: time 2016-02-05_12:49:46 on domain   3:     .16641 elapsed seconds
Timing for main: time 2016-02-05_12:50:00 on domain   3:     .16510 elapsed seconds
Timing for main: time 2016-02-05_12:49:40 on domain   4:     .19311 elapsed seconds
Timing for main: time 2016-02-05_12:50:00 on domain   4:     .19785 elapsed seconds
Timing for main: time 2016-02-05_12:50:00 on domain   2:    1.53101 elapsed seconds
Timing for main: time 2016-02-05_12:50:00 on domain   1:    4.91356 elapsed seconds
Timing for main: time 2016-02-05_12:50:13 on domain   3:     .17701 elapsed seconds
Timing for main: time 2016-02-05_12:50:26 on domain   3:     .16475 elapsed seconds
Timing for main: time 2016-02-05_12:50:40 on domain   3:     .16506 elapsed seconds
Timing for main: time 2016-02-05_12:50:20 on domain   4:     .19299 elapsed seconds
Timing for main: time 2016-02-05_12:50:40 on domain   4:     .18946 elapsed seconds
Timing for main: time 2016-02-05_12:50:40 on domain   2:    1.53685 elapsed seconds
Timing for main: time 2016-02-05_12:50:53 on domain   3:     .17681 elapsed seconds
Timing for main: time 2016-02-05_12:51:06 on domain   3:     .17262 elapsed seconds
Timing for main: time 2016-02-05_12:51:20 on domain   3:     .16608 elapsed seconds
Timing for main: time 2016-02-05_12:51:00 on domain   4:     .19293 elapsed seconds
Timing for main: time 2016-02-05_12:51:20 on domain   4:     .18875 elapsed seconds
Timing for main: time 2016-02-05_12:51:20 on domain   2:    1.52785 elapsed seconds
Timing for main: time 2016-02-05_12:51:33 on domain   3:     .17664 elapsed seconds
Timing for main: time 2016-02-05_12:51:46 on domain   3:     .16478 elapsed seconds
Timing for main: time 2016-02-05_12:52:00 on domain   3:     .16476 elapsed seconds
Timing for main: time 2016-02-05_12:51:40 on domain   4:     .19311 elapsed seconds
Timing for main: time 2016-02-05_12:52:00 on domain   4:     .18846 elapsed seconds
Timing for main: time 2016-02-05_12:52:00 on domain   2:    1.51798 elapsed seconds
Timing for main: time 2016-02-05_12:52:00 on domain   1:    4.90857 elapsed seconds
Timing for main: time 2016-02-05_12:52:13 on domain   3:     .17659 elapsed seconds
Timing for main: time 2016-02-05_12:52:26 on domain   3:     .16477 elapsed seconds
Timing for main: time 2016-02-05_12:52:40 on domain   3:     .16529 elapsed seconds
Timing for main: time 2016-02-05_12:52:20 on domain   4:     .19365 elapsed seconds
Timing for main: time 2016-02-05_12:52:40 on domain   4:     .18836 elapsed seconds
Timing for main: time 2016-02-05_12:52:40 on domain   2:    1.53822 elapsed seconds
Timing for main: time 2016-02-05_12:52:53 on domain   3:     .17680 elapsed seconds
Timing for main: time 2016-02-05_12:53:06 on domain   3:     .16492 elapsed seconds
Timing for main: time 2016-02-05_12:53:20 on domain   3:     .16478 elapsed seconds
Timing for main: time 2016-02-05_12:53:00 on domain   4:     .19361 elapsed seconds
Timing for main: time 2016-02-05_12:53:20 on domain   4:     .18842 elapsed seconds
Timing for main: time 2016-02-05_12:53:20 on domain   2:    1.52779 elapsed seconds
Timing for main: time 2016-02-05_12:53:33 on domain   3:     .17655 elapsed seconds
Timing for main: time 2016-02-05_12:53:46 on domain   3:     .16488 elapsed seconds
Timing for main: time 2016-02-05_12:54:00 on domain   3:     .16505 elapsed seconds
Timing for main: time 2016-02-05_12:53:40 on domain   4:     .19355 elapsed seconds
Timing for main: time 2016-02-05_12:54:00 on domain   4:     .18888 elapsed seconds
Timing for main: time 2016-02-05_12:54:00 on domain   2:    1.51910 elapsed seconds
Timing for main: time 2016-02-05_12:54:00 on domain   1:    4.91800 elapsed seconds
Timing for main: time 2016-02-05_12:54:13 on domain   3:     .17664 elapsed seconds
Timing for main: time 2016-02-05_12:54:26 on domain   3:     .16505 elapsed seconds
Timing for main: time 2016-02-05_12:54:40 on domain   3:     .16488 elapsed seconds
Timing for main: time 2016-02-05_12:54:20 on domain   4:     .19294 elapsed seconds
Timing for main: time 2016-02-05_12:54:40 on domain   4:     .19624 elapsed seconds
Timing for main: time 2016-02-05_12:54:40 on domain   2:    1.54557 elapsed seconds
Timing for main: time 2016-02-05_12:54:53 on domain   3:     .17646 elapsed seconds
Timing for main: time 2016-02-05_12:55:06 on domain   3:     .16487 elapsed seconds
Timing for main: time 2016-02-05_12:55:20 on domain   3:     .16519 elapsed seconds
Timing for main: time 2016-02-05_12:55:00 on domain   4:     .20199 elapsed seconds
Timing for main: time 2016-02-05_12:55:20 on domain   4:     .18833 elapsed seconds
Timing for main: time 2016-02-05_12:55:20 on domain   2:    1.52626 elapsed seconds
Timing for main: time 2016-02-05_12:55:33 on domain   3:     .17650 elapsed seconds
Timing for main: time 2016-02-05_12:55:46 on domain   3:     .16522 elapsed seconds
Timing for main: time 2016-02-05_12:56:00 on domain   3:     .16574 elapsed seconds
Timing for main: time 2016-02-05_12:55:40 on domain   4:     .19356 elapsed seconds
Timing for main: time 2016-02-05_12:56:00 on domain   4:     .18859 elapsed seconds
Timing for main: time 2016-02-05_12:56:00 on domain   2:    1.51826 elapsed seconds
Timing for main: time 2016-02-05_12:56:00 on domain   1:    4.91662 elapsed seconds
Timing for main: time 2016-02-05_12:56:13 on domain   3:     .18412 elapsed seconds
Timing for main: time 2016-02-05_12:56:26 on domain   3:     .16462 elapsed seconds
Timing for main: time 2016-02-05_12:56:40 on domain   3:     .16508 elapsed seconds
Timing for main: time 2016-02-05_12:56:20 on domain   4:     .19234 elapsed seconds
Timing for main: time 2016-02-05_12:56:40 on domain   4:     .18842 elapsed seconds
Timing for main: time 2016-02-05_12:56:40 on domain   2:    1.58208 elapsed seconds
Timing for main: time 2016-02-05_12:56:53 on domain   3:     .17594 elapsed seconds
Timing for main: time 2016-02-05_12:57:06 on domain   3:     .16487 elapsed seconds
Timing for main: time 2016-02-05_12:57:20 on domain   3:     .16498 elapsed seconds
Timing for main: time 2016-02-05_12:57:00 on domain   4:     .19335 elapsed seconds
Timing for main: time 2016-02-05_12:57:20 on domain   4:     .18845 elapsed seconds
Timing for main: time 2016-02-05_12:57:20 on domain   2:    1.51876 elapsed seconds
Timing for main: time 2016-02-05_12:57:33 on domain   3:     .17652 elapsed seconds
Timing for main: time 2016-02-05_12:57:46 on domain   3:     .16533 elapsed seconds
Timing for main: time 2016-02-05_12:58:00 on domain   3:     .16490 elapsed seconds
Timing for main: time 2016-02-05_12:57:40 on domain   4:     .19330 elapsed seconds
Timing for main: time 2016-02-05_12:58:00 on domain   4:     .18850 elapsed seconds
Timing for main: time 2016-02-05_12:58:00 on domain   2:    1.51855 elapsed seconds
Timing for main: time 2016-02-05_12:58:00 on domain   1:    4.94640 elapsed seconds
  photolysis_driver: called for domain  1
Timing for main: time 2016-02-05_12:58:13 on domain   3:     .17674 elapsed seconds
Timing for main: time 2016-02-05_12:58:26 on domain   3:     .16501 elapsed seconds
Timing for main: time 2016-02-05_12:58:40 on domain   3:     .16539 elapsed seconds
Timing for main: time 2016-02-05_12:58:20 on domain   4:     .19322 elapsed seconds
Timing for main: time 2016-02-05_12:58:40 on domain   4:     .18967 elapsed seconds
Timing for main: time 2016-02-05_12:58:40 on domain   2:    1.54693 elapsed seconds
Timing for main: time 2016-02-05_12:58:53 on domain   3:     .17713 elapsed seconds
Timing for main: time 2016-02-05_12:59:06 on domain   3:     .16816 elapsed seconds
Timing for main: time 2016-02-05_12:59:20 on domain   3:     .16545 elapsed seconds
Timing for main: time 2016-02-05_12:59:00 on domain   4:     .19354 elapsed seconds
Timing for main: time 2016-02-05_12:59:20 on domain   4:     .18832 elapsed seconds
Timing for main: time 2016-02-05_12:59:20 on domain   2:    1.52363 elapsed seconds
  photolysis_driver: called for domain  2
Timing for main: time 2016-02-05_12:59:33 on domain   3:     .17667 elapsed seconds
Timing for main: time 2016-02-05_12:59:46 on domain   3:     .16662 elapsed seconds
  photolysis_driver: called for domain  3
Timing for main: time 2016-02-05_13:00:00 on domain   3:     .97360 elapsed seconds
Timing for main: time 2016-02-05_12:59:40 on domain   4:     .19266 elapsed seconds
  photolysis_driver: called for domain  4
Timing for main: time 2016-02-05_13:00:00 on domain   4:    1.09011 elapsed seconds
Timing for main: time 2016-02-05_13:00:00 on domain   2:    4.23372 elapsed seconds
Timing for main: time 2016-02-05_13:00:00 on domain   1:    8.20127 elapsed seconds
Timing for Writing wrfout_d01_2016-02-05_13:00:00 for domain        1:    1.45310 elapsed seconds
  HOURLY EMISSIONS UPDATE TIME     3600.0        .0
 mediation_integrate: med_read_wrf_chem_emissions: Read emissions for time 2016-02-05_13:00:00
 **WARNING** Time in input file not being checked **WARNING**
Timing for Writing wrfout_d02_2016-02-05_13:00:00 for domain        2:    1.96553 elapsed seconds
Timing for Writing wrfout_d03_2016-02-05_13:00:00 for domain        3:    1.82467 elapsed seconds
Timing for main: time 2016-02-05_13:00:13 on domain   3:    2.19785 elapsed seconds
Timing for main: time 2016-02-05_13:00:26 on domain   3:     .19564 elapsed seconds
Timing for main: time 2016-02-05_13:00:40 on domain   3:     .19147 elapsed seconds
Timing for Writing wrfout_d04_2016-02-05_13:00:00 for domain        4:    1.92660 elapsed seconds
Timing for main: time 2016-02-05_13:00:20 on domain   4:    2.36652 elapsed seconds
Timing for main: time 2016-02-05_13:00:40 on domain   4:     .22312 elapsed seconds
Timing for main: time 2016-02-05_13:00:40 on domain   2:    8.02405 elapsed seconds
Timing for main: time 2016-02-05_13:00:53 on domain   3:     .17682 elapsed seconds
Timing for main: time 2016-02-05_13:01:06 on domain   3:     .16780 elapsed seconds
Timing for main: time 2016-02-05_13:01:20 on domain   3:     .17164 elapsed seconds
Timing for main: time 2016-02-05_13:01:00 on domain   4:     .19414 elapsed seconds
Timing for main: time 2016-02-05_13:01:20 on domain   4:     .18915 elapsed seconds
Timing for main: time 2016-02-05_13:01:20 on domain   2:    1.55209 elapsed seconds
Timing for main: time 2016-02-05_13:01:33 on domain   3:     .17671 elapsed seconds
Timing for main: time 2016-02-05_13:01:46 on domain   3:     .16472 elapsed seconds
Timing for main: time 2016-02-05_13:02:00 on domain   3:     .16508 elapsed seconds
Timing for main: time 2016-02-05_13:01:40 on domain   4:     .19349 elapsed seconds
Timing for main: time 2016-02-05_13:02:00 on domain   4:     .18828 elapsed seconds
Timing for main: time 2016-02-05_13:02:00 on domain   2:    1.51923 elapsed seconds
Timing for main: time 2016-02-05_13:02:00 on domain   1:   13.72142 elapsed seconds
Timing for main: time 2016-02-05_13:02:13 on domain   3:     .17685 elapsed seconds
Timing for main: time 2016-02-05_13:02:26 on domain   3:     .16622 elapsed seconds
Timing for main: time 2016-02-05_13:02:40 on domain   3:     .16507 elapsed seconds
Timing for main: time 2016-02-05_13:02:20 on domain   4:     .19332 elapsed seconds
Timing for main: time 2016-02-05_13:02:40 on domain   4:     .18858 elapsed seconds
Timing for main: time 2016-02-05_13:02:40 on domain   2:    1.53819 elapsed seconds
Timing for main: time 2016-02-05_13:02:53 on domain   3:     .17680 elapsed seconds
Timing for main: time 2016-02-05_13:03:06 on domain   3:     .16698 elapsed seconds
Timing for main: time 2016-02-05_13:03:20 on domain   3:     .16692 elapsed seconds
Timing for main: time 2016-02-05_13:03:00 on domain   4:     .19319 elapsed seconds
Timing for main: time 2016-02-05_13:03:20 on domain   4:     .18843 elapsed seconds
Timing for main: time 2016-02-05_13:03:20 on domain   2:    1.52863 elapsed seconds
Timing for main: time 2016-02-05_13:03:33 on domain   3:     .17668 elapsed seconds
Timing for main: time 2016-02-05_13:03:46 on domain   3:     .16509 elapsed seconds
Timing for main: time 2016-02-05_13:04:00 on domain   3:     .16544 elapsed seconds
Timing for main: time 2016-02-05_13:03:40 on domain   4:     .19322 elapsed seconds
Timing for main: time 2016-02-05_13:04:00 on domain   4:     .18851 elapsed seconds
Timing for main: time 2016-02-05_13:04:00 on domain   2:    1.53114 elapsed seconds
Timing for main: time 2016-02-05_13:04:00 on domain   1:    4.92470 elapsed seconds
Timing for main: time 2016-02-05_13:04:13 on domain   3:     .17678 elapsed seconds
Timing for main: time 2016-02-05_13:04:26 on domain   3:     .16500 elapsed seconds
Timing for main: time 2016-02-05_13:04:40 on domain   3:     .16473 elapsed seconds
Timing for main: time 2016-02-05_13:04:20 on domain   4:     .19310 elapsed seconds
Timing for main: time 2016-02-05_13:04:40 on domain   4:     .18838 elapsed seconds
Timing for main: time 2016-02-05_13:04:40 on domain   2:    1.54342 elapsed seconds
Timing for main: time 2016-02-05_13:04:53 on domain   3:     .17638 elapsed seconds
Timing for main: time 2016-02-05_13:05:06 on domain   3:     .16458 elapsed seconds
Timing for main: time 2016-02-05_13:05:20 on domain   3:     .16542 elapsed seconds
Timing for main: time 2016-02-05_13:05:00 on domain   4:     .20165 elapsed seconds
Timing for main: time 2016-02-05_13:05:20 on domain   4:     .18881 elapsed seconds
Timing for main: time 2016-02-05_13:05:20 on domain   2:    1.52808 elapsed seconds
Timing for main: time 2016-02-05_13:05:33 on domain   3:     .17636 elapsed seconds
Timing for main: time 2016-02-05_13:05:46 on domain   3:     .16514 elapsed seconds
Timing for main: time 2016-02-05_13:06:00 on domain   3:     .16580 elapsed seconds
Timing for main: time 2016-02-05_13:05:40 on domain   4:     .19313 elapsed seconds
Timing for main: time 2016-02-05_13:06:00 on domain   4:     .18821 elapsed seconds
Timing for main: time 2016-02-05_13:06:00 on domain   2:    1.51782 elapsed seconds
Timing for main: time 2016-02-05_13:06:00 on domain   1:    4.92246 elapsed seconds
Timing for main: time 2016-02-05_13:06:13 on domain   3:     .17631 elapsed seconds
Timing for main: time 2016-02-05_13:06:26 on domain   3:     .17234 elapsed seconds
Timing for main: time 2016-02-05_13:06:40 on domain   3:     .16548 elapsed seconds
Timing for main: time 2016-02-05_13:06:20 on domain   4:     .20514 elapsed seconds
Timing for main: time 2016-02-05_13:06:40 on domain   4:     .18808 elapsed seconds
Timing for main: time 2016-02-05_13:06:40 on domain   2:    1.55714 elapsed seconds
Timing for main: time 2016-02-05_13:06:53 on domain   3:     .17668 elapsed seconds
Timing for main: time 2016-02-05_13:07:06 on domain   3:     .16492 elapsed seconds
Timing for main: time 2016-02-05_13:07:20 on domain   3:     .16502 elapsed seconds
Timing for main: time 2016-02-05_13:07:00 on domain   4:     .19328 elapsed seconds
Timing for main: time 2016-02-05_13:07:20 on domain   4:     .18848 elapsed seconds
Timing for main: time 2016-02-05_13:07:20 on domain   2:    1.51926 elapsed seconds
Timing for main: time 2016-02-05_13:07:33 on domain   3:     .17670 elapsed seconds
Timing for main: time 2016-02-05_13:07:46 on domain   3:     .16478 elapsed seconds
Timing for main: time 2016-02-05_13:08:00 on domain   3:     .16513 elapsed seconds
Timing for main: time 2016-02-05_13:07:40 on domain   4:     .19342 elapsed seconds
Timing for main: time 2016-02-05_13:08:00 on domain   4:     .18806 elapsed seconds
Timing for main: time 2016-02-05_13:08:00 on domain   2:    1.52051 elapsed seconds
Timing for main: time 2016-02-05_13:08:00 on domain   1:    4.92316 elapsed seconds
Timing for main: time 2016-02-05_13:08:13 on domain   3:     .17666 elapsed seconds
Timing for main: time 2016-02-05_13:08:26 on domain   3:     .16492 elapsed seconds
Timing for main: time 2016-02-05_13:08:40 on domain   3:     .16569 elapsed seconds
Timing for main: time 2016-02-05_13:08:20 on domain   4:     .19330 elapsed seconds
Timing for main: time 2016-02-05_13:08:40 on domain   4:     .18905 elapsed seconds
Timing for main: time 2016-02-05_13:08:40 on domain   2:    1.57673 elapsed seconds
Timing for main: time 2016-02-05_13:08:53 on domain   3:     .17672 elapsed seconds
Timing for main: time 2016-02-05_13:09:06 on domain   3:     .16512 elapsed seconds
Timing for main: time 2016-02-05_13:09:20 on domain   3:     .16698 elapsed seconds
Timing for main: time 2016-02-05_13:09:00 on domain   4:     .24091 elapsed seconds
Timing for main: time 2016-02-05_13:09:20 on domain   4:     .20318 elapsed seconds
Timing for main: time 2016-02-05_13:09:20 on domain   2:    1.59241 elapsed seconds
Timing for main: time 2016-02-05_13:09:33 on domain   3:     .17649 elapsed seconds
Timing for main: time 2016-02-05_13:09:46 on domain   3:     .16517 elapsed seconds
Timing for main: time 2016-02-05_13:10:00 on domain   3:     .16583 elapsed seconds
Timing for main: time 2016-02-05_13:09:40 on domain   4:     .19326 elapsed seconds
Timing for main: time 2016-02-05_13:10:00 on domain   4:     .19670 elapsed seconds
Timing for main: time 2016-02-05_13:10:00 on domain   2:    1.52821 elapsed seconds
Timing for main: time 2016-02-05_13:10:00 on domain   1:    5.02338 elapsed seconds
Timing for main: time 2016-02-05_13:10:13 on domain   3:     .17688 elapsed seconds
Timing for main: time 2016-02-05_13:10:26 on domain   3:     .16520 elapsed seconds
Timing for main: time 2016-02-05_13:10:40 on domain   3:     .16550 elapsed seconds
Timing for main: time 2016-02-05_13:10:20 on domain   4:     .19300 elapsed seconds
Timing for main: time 2016-02-05_13:10:40 on domain   4:     .18848 elapsed seconds
Timing for main: time 2016-02-05_13:10:40 on domain   2:    1.54018 elapsed seconds
Timing for main: time 2016-02-05_13:10:53 on domain   3:     .17665 elapsed seconds
Timing for main: time 2016-02-05_13:11:06 on domain   3:     .16510 elapsed seconds
Timing for main: time 2016-02-05_13:11:20 on domain   3:     .16491 elapsed seconds
Timing for main: time 2016-02-05_13:11:00 on domain   4:     .19358 elapsed seconds
Timing for main: time 2016-02-05_13:11:20 on domain   4:     .18812 elapsed seconds
Timing for main: time 2016-02-05_13:11:20 on domain   2:    1.51981 elapsed seconds
Timing for main: time 2016-02-05_13:11:33 on domain   3:     .18565 elapsed seconds
Timing for main: time 2016-02-05_13:11:46 on domain   3:     .16513 elapsed seconds
Timing for main: time 2016-02-05_13:12:00 on domain   3:     .16525 elapsed seconds
Timing for main: time 2016-02-05_13:11:40 on domain   4:     .19331 elapsed seconds
Timing for main: time 2016-02-05_13:12:00 on domain   4:     .18958 elapsed seconds
Timing for main: time 2016-02-05_13:12:00 on domain   2:    1.53100 elapsed seconds
Timing for main: time 2016-02-05_13:12:00 on domain   1:    4.92369 elapsed seconds
Timing for main: time 2016-02-05_13:12:13 on domain   3:     .17609 elapsed seconds
Timing for main: time 2016-02-05_13:12:26 on domain   3:     .16508 elapsed seconds
Timing for main: time 2016-02-05_13:12:40 on domain   3:     .16479 elapsed seconds
Timing for main: time 2016-02-05_13:12:20 on domain   4:     .19283 elapsed seconds
Timing for main: time 2016-02-05_13:12:40 on domain   4:     .18857 elapsed seconds
Timing for main: time 2016-02-05_13:12:40 on domain   2:    1.55037 elapsed seconds
Timing for main: time 2016-02-05_13:12:53 on domain   3:     .17655 elapsed seconds
Timing for main: time 2016-02-05_13:13:06 on domain   3:     .16474 elapsed seconds
Timing for main: time 2016-02-05_13:13:20 on domain   3:     .16531 elapsed seconds
Timing for main: time 2016-02-05_13:13:00 on domain   4:     .19299 elapsed seconds
Timing for main: time 2016-02-05_13:13:20 on domain   4:     .18862 elapsed seconds
Timing for main: time 2016-02-05_13:13:20 on domain   2:    1.51959 elapsed seconds
Timing for main: time 2016-02-05_13:13:33 on domain   3:     .17626 elapsed seconds
Timing for main: time 2016-02-05_13:13:46 on domain   3:     .16499 elapsed seconds
Timing for main: time 2016-02-05_13:14:00 on domain   3:     .16516 elapsed seconds
Timing for main: time 2016-02-05_13:13:40 on domain   4:     .19421 elapsed seconds
Timing for main: time 2016-02-05_13:14:00 on domain   4:     .18841 elapsed seconds
Timing for main: time 2016-02-05_13:14:00 on domain   2:    1.52142 elapsed seconds
Timing for main: time 2016-02-05_13:14:00 on domain   1:    4.92302 elapsed seconds
Timing for main: time 2016-02-05_13:14:13 on domain   3:     .17668 elapsed seconds
Timing for main: time 2016-02-05_13:14:26 on domain   3:     .16506 elapsed seconds
Timing for main: time 2016-02-05_13:14:40 on domain   3:     .16506 elapsed seconds
Timing for main: time 2016-02-05_13:14:20 on domain   4:     .19265 elapsed seconds
Timing for main: time 2016-02-05_13:14:40 on domain   4:     .18864 elapsed seconds
Timing for main: time 2016-02-05_13:14:40 on domain   2:    1.56137 elapsed seconds
Timing for main: time 2016-02-05_13:14:53 on domain   3:     .17727 elapsed seconds
Timing for main: time 2016-02-05_13:15:06 on domain   3:     .16510 elapsed seconds
Timing for main: time 2016-02-05_13:15:20 on domain   3:     .16506 elapsed seconds
Timing for main: time 2016-02-05_13:15:00 on domain   4:     .20530 elapsed seconds
Timing for main: time 2016-02-05_13:15:20 on domain   4:     .18838 elapsed seconds
Timing for main: time 2016-02-05_13:15:20 on domain   2:    1.53297 elapsed seconds
Timing for main: time 2016-02-05_13:15:33 on domain   3:     .17611 elapsed seconds
Timing for main: time 2016-02-05_13:15:46 on domain   3:     .16771 elapsed seconds
Timing for main: time 2016-02-05_13:16:00 on domain   3:     .16553 elapsed seconds
Timing for main: time 2016-02-05_13:15:40 on domain   4:     .19305 elapsed seconds
Timing for main: time 2016-02-05_13:16:00 on domain   4:     .18851 elapsed seconds
Timing for main: time 2016-02-05_13:16:00 on domain   2:    1.52263 elapsed seconds
Timing for main: time 2016-02-05_13:16:00 on domain   1:    4.94558 elapsed seconds
Timing for main: time 2016-02-05_13:16:13 on domain   3:     .17676 elapsed seconds
Timing for main: time 2016-02-05_13:16:26 on domain   3:     .16552 elapsed seconds
Timing for main: time 2016-02-05_13:16:40 on domain   3:     .17241 elapsed seconds
Timing for main: time 2016-02-05_13:16:20 on domain   4:     .19725 elapsed seconds
Timing for main: time 2016-02-05_13:16:40 on domain   4:     .18832 elapsed seconds
Timing for main: time 2016-02-05_13:16:40 on domain   2:    1.54966 elapsed seconds
Timing for main: time 2016-02-05_13:16:53 on domain   3:     .17838 elapsed seconds
Timing for main: time 2016-02-05_13:17:06 on domain   3:     .16713 elapsed seconds
Timing for main: time 2016-02-05_13:17:20 on domain   3:     .16306 elapsed seconds
Timing for main: time 2016-02-05_13:17:00 on domain   4:     .19336 elapsed seconds
Timing for main: time 2016-02-05_13:17:20 on domain   4:     .18822 elapsed seconds
Timing for main: time 2016-02-05_13:17:20 on domain   2:    1.52129 elapsed seconds
[...]
Timing for main: time 2016-02-05_17:36:00 on domain   2:    1.53400 elapsed seconds
Timing for main: time 2016-02-05_17:36:00 on domain   1:    4.94780 elapsed seconds
Timing for main: time 2016-02-05_17:36:13 on domain   3:     .17829 elapsed seconds
Timing for main: time 2016-02-05_17:36:26 on domain   3:     .16718 elapsed seconds
Timing for main: time 2016-02-05_17:36:40 on domain   3:     .16695 elapsed seconds
Timing for main: time 2016-02-05_17:36:20 on domain   4:     .19305 elapsed seconds
Timing for main: time 2016-02-05_17:36:40 on domain   4:     .18950 elapsed seconds
Timing for main: time 2016-02-05_17:36:40 on domain   2:    1.54298 elapsed seconds
Timing for main: time 2016-02-05_17:36:53 on domain   3:     .17818 elapsed seconds
Timing for main: time 2016-02-05_17:37:06 on domain   3:     .16637 elapsed seconds
Timing for main: time 2016-02-05_17:37:20 on domain   3:     .17412 elapsed seconds
Timing for main: time 2016-02-05_17:37:00 on domain   4:     .19422 elapsed seconds
Timing for main: time 2016-02-05_17:37:20 on domain   4:     .18890 elapsed seconds
Timing for main: time 2016-02-05_17:37:20 on domain   2:    1.53575 elapsed seconds
Timing for main: time 2016-02-05_17:37:33 on domain   3:     .17842 elapsed seconds
Timing for main: time 2016-02-05_17:37:46 on domain   3:     .16762 elapsed seconds
Timing for main: time 2016-02-05_17:38:00 on domain   3:     .16671 elapsed seconds
Timing for main: time 2016-02-05_17:37:40 on domain   4:     .19323 elapsed seconds
Timing for main: time 2016-02-05_17:38:00 on domain   4:     .18917 elapsed seconds
Timing for main: time 2016-02-05_17:38:00 on domain   2:    1.52746 elapsed seconds
Timing for main: time 2016-02-05_17:38:00 on domain   1:    4.93559 elapsed seconds
Timing for main: time 2016-02-05_17:38:13 on domain   3:     .17784 elapsed seconds
Timing for main: time 2016-02-05_17:38:26 on domain   3:     .16626 elapsed seconds
Timing for main: time 2016-02-05_17:38:40 on domain   3:     .16753 elapsed seconds
Timing for main: time 2016-02-05_17:38:20 on domain   4:     .19401 elapsed seconds
Timing for main: time 2016-02-05_17:38:40 on domain   4:     .18824 elapsed seconds
Timing for main: time 2016-02-05_17:38:40 on domain   2:    1.54189 elapsed seconds
Timing for main: time 2016-02-05_17:38:53 on domain   3:     .17812 elapsed seconds
Timing for main: time 2016-02-05_17:39:06 on domain   3:     .16670 elapsed seconds
Timing for main: time 2016-02-05_17:39:20 on domain   3:     .16670 elapsed seconds
Timing for main: time 2016-02-05_17:39:00 on domain   4:     .19304 elapsed seconds
Timing for main: time 2016-02-05_17:39:20 on domain   4:     .19099 elapsed seconds
Timing for main: time 2016-02-05_17:39:20 on domain   2:    1.52706 elapsed seconds
Timing for main: time 2016-02-05_17:39:33 on domain   3:     .17888 elapsed seconds
Timing for main: time 2016-02-05_17:39:46 on domain   3:     .16667 elapsed seconds
Timing for main: time 2016-02-05_17:40:00 on domain   3:     .16694 elapsed seconds
Timing for main: time 2016-02-05_17:39:40 on domain   4:     .19294 elapsed seconds
Timing for main: time 2016-02-05_17:40:00 on domain   4:     .19787 elapsed seconds
Timing for main: time 2016-02-05_17:40:00 on domain   2:    1.53509 elapsed seconds
Timing for main: time 2016-02-05_17:40:00 on domain   1:    4.93272 elapsed seconds
Timing for main: time 2016-02-05_17:40:13 on domain   3:     .17816 elapsed seconds
Timing for main: time 2016-02-05_17:40:26 on domain   3:     .16674 elapsed seconds
Timing for main: time 2016-02-05_17:40:40 on domain   3:     .16731 elapsed seconds
Timing for main: time 2016-02-05_17:40:20 on domain   4:     .19276 elapsed seconds
Timing for main: time 2016-02-05_17:40:40 on domain   4:     .18962 elapsed seconds
Timing for main: time 2016-02-05_17:40:40 on domain   2:    1.54339 elapsed seconds
Timing for main: time 2016-02-05_17:40:53 on domain   3:     .22158 elapsed seconds
Timing for main: time 2016-02-05_17:41:06 on domain   3:     .19064 elapsed seconds
Timing for main: time 2016-02-05_17:41:20 on domain   3:     .16562 elapsed seconds
Timing for main: time 2016-02-05_17:41:00 on domain   4:     .19275 elapsed seconds
Timing for main: time 2016-02-05_17:41:20 on domain   4:     .18965 elapsed seconds
Timing for main: time 2016-02-05_17:41:20 on domain   2:    1.60077 elapsed seconds
Timing for main: time 2016-02-05_17:41:33 on domain   3:     .17842 elapsed seconds
Timing for main: time 2016-02-05_17:41:46 on domain   3:     .16632 elapsed seconds
Timing for main: time 2016-02-05_17:42:00 on domain   3:     .16647 elapsed seconds
Timing for main: time 2016-02-05_17:41:40 on domain   4:     .19282 elapsed seconds
Timing for main: time 2016-02-05_17:42:00 on domain   4:     .19144 elapsed seconds
Timing for main: time 2016-02-05_17:42:00 on domain   2:    1.52796 elapsed seconds
Timing for main: time 2016-02-05_17:42:00 on domain   1:    5.00813 elapsed seconds
Timing for main: time 2016-02-05_17:42:13 on domain   3:     .17819 elapsed seconds
Timing for main: time 2016-02-05_17:42:26 on domain   3:     .17373 elapsed seconds
Timing for main: time 2016-02-05_17:42:40 on domain   3:     .16678 elapsed seconds
Timing for main: time 2016-02-05_17:42:20 on domain   4:     .19291 elapsed seconds
Timing for main: time 2016-02-05_17:42:40 on domain   4:     .18961 elapsed seconds
Timing for main: time 2016-02-05_17:42:40 on domain   2:    1.54980 elapsed seconds
Timing for main: time 2016-02-05_17:42:53 on domain   3:     .17778 elapsed seconds
Timing for main: time 2016-02-05_17:43:06 on domain   3:     .16654 elapsed seconds
Timing for main: time 2016-02-05_17:43:20 on domain   3:     .16672 elapsed seconds
Timing for main: time 2016-02-05_17:43:00 on domain   4:     .19559 elapsed seconds
Timing for main: time 2016-02-05_17:43:20 on domain   4:     .18884 elapsed seconds
Timing for main: time 2016-02-05_17:43:20 on domain   2:    1.52850 elapsed seconds
Timing for main: time 2016-02-05_17:43:33 on domain   3:     .17658 elapsed seconds
Timing for main: time 2016-02-05_17:43:46 on domain   3:     .16627 elapsed seconds
Timing for main: time 2016-02-05_17:44:00 on domain   3:     .16694 elapsed seconds
Timing for main: time 2016-02-05_17:43:40 on domain   4:     .19310 elapsed seconds
Timing for main: time 2016-02-05_17:44:00 on domain   4:     .18942 elapsed seconds
Timing for main: time 2016-02-05_17:44:00 on domain   2:    1.52647 elapsed seconds
Timing for main: time 2016-02-05_17:44:00 on domain   1:    5.02682 elapsed seconds
Timing for main: time 2016-02-05_17:44:13 on domain   3:     .17825 elapsed seconds
Timing for main: time 2016-02-05_17:44:26 on domain   3:     .16700 elapsed seconds
Timing for main: time 2016-02-05_17:44:40 on domain   3:     .16796 elapsed seconds
Timing for main: time 2016-02-05_17:44:20 on domain   4:     .19302 elapsed seconds
Timing for main: time 2016-02-05_17:44:40 on domain   4:     .18954 elapsed seconds
Timing for main: time 2016-02-05_17:44:40 on domain   2:    1.54464 elapsed seconds
Timing for main: time 2016-02-05_17:44:53 on domain   3:     .19590 elapsed seconds
Timing for main: time 2016-02-05_17:45:06 on domain   3:     .16557 elapsed seconds
Timing for main: time 2016-02-05_17:45:20 on domain   3:     .16679 elapsed seconds
Timing for main: time 2016-02-05_17:45:00 on domain   4:     .20139 elapsed seconds
Timing for main: time 2016-02-05_17:45:20 on domain   4:     .18976 elapsed seconds
Timing for main: time 2016-02-05_17:45:20 on domain   2:    1.55235 elapsed seconds
Timing for main: time 2016-02-05_17:45:33 on domain   3:     .17787 elapsed seconds
Timing for main: time 2016-02-05_17:45:46 on domain   3:     .16658 elapsed seconds
Timing for main: time 2016-02-05_17:46:00 on domain   3:     .16658 elapsed seconds
Timing for main: time 2016-02-05_17:45:40 on domain   4:     .18804 elapsed seconds
Timing for main: time 2016-02-05_17:46:00 on domain   4:     .18919 elapsed seconds
Timing for main: time 2016-02-05_17:46:00 on domain   2:    1.52587 elapsed seconds
Timing for main: time 2016-02-05_17:46:00 on domain   1:    4.95155 elapsed seconds
Timing for main: time 2016-02-05_17:46:13 on domain   3:     .17840 elapsed seconds
Timing for main: time 2016-02-05_17:46:26 on domain   3:     .16643 elapsed seconds
Timing for main: time 2016-02-05_17:46:40 on domain   3:     .16655 elapsed seconds
Timing for main: time 2016-02-05_17:46:20 on domain   4:     .19412 elapsed seconds
Timing for main: time 2016-02-05_17:46:40 on domain   4:     .18940 elapsed seconds
Timing for main: time 2016-02-05_17:46:40 on domain   2:    1.55212 elapsed seconds
Timing for main: time 2016-02-05_17:46:53 on domain   3:     .17828 elapsed seconds
Timing for main: time 2016-02-05_17:47:06 on domain   3:     .16667 elapsed seconds
Timing for main: time 2016-02-05_17:47:20 on domain   3:     .16651 elapsed seconds
Timing for main: time 2016-02-05_17:47:00 on domain   4:     .19604 elapsed seconds
Timing for main: time 2016-02-05_17:47:20 on domain   4:     .18923 elapsed seconds
Timing for main: time 2016-02-05_17:47:20 on domain   2:    1.52821 elapsed seconds
Timing for main: time 2016-02-05_17:47:33 on domain   3:     .18617 elapsed seconds
Timing for main: time 2016-02-05_17:47:46 on domain   3:     .16676 elapsed seconds
Timing for main: time 2016-02-05_17:48:00 on domain   3:     .16674 elapsed seconds
Timing for main: time 2016-02-05_17:47:40 on domain   4:     .19302 elapsed seconds
Timing for main: time 2016-02-05_17:48:00 on domain   4:     .18942 elapsed seconds
Timing for main: time 2016-02-05_17:48:00 on domain   2:    1.53454 elapsed seconds
Timing for main: time 2016-02-05_17:48:00 on domain   1:    4.95190 elapsed seconds
Timing for main: time 2016-02-05_17:48:13 on domain   3:     .17883 elapsed seconds
Timing for main: time 2016-02-05_17:48:26 on domain   3:     .16643 elapsed seconds
Timing for main: time 2016-02-05_17:48:40 on domain   3:     .16662 elapsed seconds
Timing for main: time 2016-02-05_17:48:20 on domain   4:     .19299 elapsed seconds
Timing for main: time 2016-02-05_17:48:40 on domain   4:     .18961 elapsed seconds
Timing for main: time 2016-02-05_17:48:40 on domain   2:    1.54410 elapsed seconds
Timing for main: time 2016-02-05_17:48:53 on domain   3:     .17809 elapsed seconds
Timing for main: time 2016-02-05_17:49:06 on domain   3:     .16652 elapsed seconds
Timing for main: time 2016-02-05_17:49:20 on domain   3:     .16621 elapsed seconds
Timing for main: time 2016-02-05_17:49:00 on domain   4:     .19335 elapsed seconds
Timing for main: time 2016-02-05_17:49:20 on domain   4:     .20513 elapsed seconds
Timing for main: time 2016-02-05_17:49:20 on domain   2:    1.54077 elapsed seconds
Timing for main: time 2016-02-05_17:49:33 on domain   3:     .17870 elapsed seconds
Timing for main: time 2016-02-05_17:49:46 on domain   3:     .16616 elapsed seconds
Timing for main: time 2016-02-05_17:50:00 on domain   3:     .16715 elapsed seconds
Timing for main: time 2016-02-05_17:49:40 on domain   4:     .19307 elapsed seconds
Timing for main: time 2016-02-05_17:50:00 on domain   4:     .19772 elapsed seconds
Timing for main: time 2016-02-05_17:50:00 on domain   2:    1.53275 elapsed seconds
Timing for main: time 2016-02-05_17:50:00 on domain   1:    4.94638 elapsed seconds
Timing for main: time 2016-02-05_17:50:13 on domain   3:     .18021 elapsed seconds
Timing for main: time 2016-02-05_17:50:26 on domain   3:     .16676 elapsed seconds
Timing for main: time 2016-02-05_17:50:40 on domain   3:     .16667 elapsed seconds
Timing for main: time 2016-02-05_17:50:20 on domain   4:     .19313 elapsed seconds
Timing for main: time 2016-02-05_17:50:40 on domain   4:     .18946 elapsed seconds
Timing for main: time 2016-02-05_17:50:40 on domain   2:    1.54479 elapsed seconds
Timing for main: time 2016-02-05_17:50:53 on domain   3:     .17848 elapsed seconds
Timing for main: time 2016-02-05_17:51:06 on domain   3:     .16653 elapsed seconds
Timing for main: time 2016-02-05_17:51:20 on domain   3:     .16654 elapsed seconds
Timing for main: time 2016-02-05_17:51:00 on domain   4:     .19318 elapsed seconds
Timing for main: time 2016-02-05_17:51:20 on domain   4:     .18900 elapsed seconds
Timing for main: time 2016-02-05_17:51:20 on domain   2:    1.52622 elapsed seconds
Timing for main: time 2016-02-05_17:51:33 on domain   3:     .17871 elapsed seconds
Timing for main: time 2016-02-05_17:51:46 on domain   3:     .16753 elapsed seconds
Timing for main: time 2016-02-05_17:52:00 on domain   3:     .16716 elapsed seconds
Timing for main: time 2016-02-05_17:51:40 on domain   4:     .19286 elapsed seconds
Timing for main: time 2016-02-05_17:52:00 on domain   4:     .18943 elapsed seconds
Timing for main: time 2016-02-05_17:52:00 on domain   2:    1.53819 elapsed seconds
Timing for main: time 2016-02-05_17:52:00 on domain   1:    4.93807 elapsed seconds
Timing for main: time 2016-02-05_17:52:13 on domain   3:     .17866 elapsed seconds
Timing for main: time 2016-02-05_17:52:26 on domain   3:     .16658 elapsed seconds
Timing for main: time 2016-02-05_17:52:40 on domain   3:     .17427 elapsed seconds
Timing for main: time 2016-02-05_17:52:20 on domain   4:     .19304 elapsed seconds
Timing for main: time 2016-02-05_17:52:40 on domain   4:     .18930 elapsed seconds
Timing for main: time 2016-02-05_17:52:40 on domain   2:    1.55000 elapsed seconds
Timing for main: time 2016-02-05_17:52:53 on domain   3:     .17833 elapsed seconds
Timing for main: time 2016-02-05_17:53:06 on domain   3:     .16660 elapsed seconds
Timing for main: time 2016-02-05_17:53:20 on domain   3:     .16671 elapsed seconds
Timing for main: time 2016-02-05_17:53:00 on domain   4:     .19343 elapsed seconds
Timing for main: time 2016-02-05_17:53:20 on domain   4:     .18968 elapsed seconds
Timing for main: time 2016-02-05_17:53:20 on domain   2:    1.52668 elapsed seconds
Timing for main: time 2016-02-05_17:53:33 on domain   3:     .17873 elapsed seconds
Timing for main: time 2016-02-05_17:53:46 on domain   3:     .16649 elapsed seconds
Timing for main: time 2016-02-05_17:54:00 on domain   3:     .16675 elapsed seconds
Timing for main: time 2016-02-05_17:53:40 on domain   4:     .19320 elapsed seconds
Timing for main: time 2016-02-05_17:54:00 on domain   4:     .18933 elapsed seconds
Timing for main: time 2016-02-05_17:54:00 on domain   2:    1.52554 elapsed seconds
Timing for main: time 2016-02-05_17:54:00 on domain   1:    4.93771 elapsed seconds
Timing for main: time 2016-02-05_17:54:13 on domain   3:     .18007 elapsed seconds
Timing for main: time 2016-02-05_17:54:26 on domain   3:     .16867 elapsed seconds
Timing for main: time 2016-02-05_17:54:40 on domain   3:     .16665 elapsed seconds
Timing for main: time 2016-02-05_17:54:20 on domain   4:     .19288 elapsed seconds
Timing for main: time 2016-02-05_17:54:40 on domain   4:     .18942 elapsed seconds
Timing for main: time 2016-02-05_17:54:40 on domain   2:    1.54634 elapsed seconds
Timing for main: time 2016-02-05_17:54:53 on domain   3:     .17823 elapsed seconds
Timing for main: time 2016-02-05_17:55:06 on domain   3:     .16646 elapsed seconds
Timing for main: time 2016-02-05_17:55:20 on domain   3:     .16668 elapsed seconds
Timing for main: time 2016-02-05_17:55:00 on domain   4:     .20169 elapsed seconds
Timing for main: time 2016-02-05_17:55:20 on domain   4:     .18968 elapsed seconds
Timing for main: time 2016-02-05_17:55:20 on domain   2:    1.53594 elapsed seconds
Timing for main: time 2016-02-05_17:55:33 on domain   3:     .17978 elapsed seconds
Timing for main: time 2016-02-05_17:55:46 on domain   3:     .16878 elapsed seconds
Timing for main: time 2016-02-05_17:56:00 on domain   3:     .16466 elapsed seconds
Timing for main: time 2016-02-05_17:55:40 on domain   4:     .19302 elapsed seconds
Timing for main: time 2016-02-05_17:56:00 on domain   4:     .18984 elapsed seconds
Timing for main: time 2016-02-05_17:56:00 on domain   2:    1.52865 elapsed seconds
Timing for main: time 2016-02-05_17:56:00 on domain   1:    4.93976 elapsed seconds
Timing for main: time 2016-02-05_17:56:13 on domain   3:     .17900 elapsed seconds
Timing for main: time 2016-02-05_17:56:26 on domain   3:     .16638 elapsed seconds
Timing for main: time 2016-02-05_17:56:40 on domain   3:     .16678 elapsed seconds
Timing for main: time 2016-02-05_17:56:20 on domain   4:     .19381 elapsed seconds
Timing for main: time 2016-02-05_17:56:40 on domain   4:     .18959 elapsed seconds
Timing for main: time 2016-02-05_17:56:40 on domain   2:    1.54445 elapsed seconds
Timing for main: time 2016-02-05_17:56:53 on domain   3:     .18081 elapsed seconds
Timing for main: time 2016-02-05_17:57:06 on domain   3:     .16641 elapsed seconds
Timing for main: time 2016-02-05_17:57:20 on domain   3:     .16666 elapsed seconds
Timing for main: time 2016-02-05_17:57:00 on domain   4:     .19302 elapsed seconds
Timing for main: time 2016-02-05_17:57:20 on domain   4:     .18938 elapsed seconds
Timing for main: time 2016-02-05_17:57:20 on domain   2:    1.59593 elapsed seconds
Timing for main: time 2016-02-05_17:57:33 on domain   3:     .17894 elapsed seconds
Timing for main: time 2016-02-05_17:57:46 on domain   3:     .17451 elapsed seconds
Timing for main: time 2016-02-05_17:58:00 on domain   3:     .16609 elapsed seconds
Timing for main: time 2016-02-05_17:57:40 on domain   4:     .19273 elapsed seconds
Timing for main: time 2016-02-05_17:58:00 on domain   4:     .19032 elapsed seconds
Timing for main: time 2016-02-05_17:58:00 on domain   2:    1.53400 elapsed seconds
Timing for main: time 2016-02-05_17:58:00 on domain   1:    5.00250 elapsed seconds
  photolysis_driver: called for domain  1
Timing for main: time 2016-02-05_17:58:13 on domain   3:     .17843 elapsed seconds
Timing for main: time 2016-02-05_17:58:26 on domain   3:     .16688 elapsed seconds
Timing for main: time 2016-02-05_17:58:40 on domain   3:     .16651 elapsed seconds
Timing for main: time 2016-02-05_17:58:20 on domain   4:     .19282 elapsed seconds
Timing for main: time 2016-02-05_17:58:40 on domain   4:     .18947 elapsed seconds
Timing for main: time 2016-02-05_17:58:40 on domain   2:    1.54257 elapsed seconds
Timing for main: time 2016-02-05_17:58:53 on domain   3:     .17904 elapsed seconds
Timing for main: time 2016-02-05_17:59:06 on domain   3:     .16651 elapsed seconds
Timing for main: time 2016-02-05_17:59:20 on domain   3:     .16702 elapsed seconds
Timing for main: time 2016-02-05_17:59:00 on domain   4:     .19237 elapsed seconds
Timing for main: time 2016-02-05_17:59:20 on domain   4:     .18920 elapsed seconds
Timing for main: time 2016-02-05_17:59:20 on domain   2:    1.52532 elapsed seconds
  photolysis_driver: called for domain  2
Timing for main: time 2016-02-05_17:59:33 on domain   3:     .17877 elapsed seconds
Timing for main: time 2016-02-05_17:59:46 on domain   3:     .16710 elapsed seconds
  photolysis_driver: called for domain  3
Timing for main: time 2016-02-05_18:00:00 on domain   3:     .97436 elapsed seconds
Timing for Writing wrfout_d03_2016-02-05_18:00:00 for domain        3:    1.77409 elapsed seconds
Timing for main: time 2016-02-05_17:59:40 on domain   4:     .22172 elapsed seconds
  photolysis_driver: called for domain  4
Timing for main: time 2016-02-05_18:00:00 on domain   4:    1.12734 elapsed seconds
Timing for Writing wrfout_d04_2016-02-05_18:00:00 for domain        4:    2.01096 elapsed seconds
Timing for main: time 2016-02-05_18:00:00 on domain   2:    8.01891 elapsed seconds
Timing for Writing wrfout_d02_2016-02-05_18:00:00 for domain        2:    2.86906 elapsed seconds
Timing for main: time 2016-02-05_18:00:00 on domain   1:   14.86912 elapsed seconds
Timing for Writing wrfout_d01_2016-02-05_18:00:00 for domain        1:    2.42210 elapsed seconds
 d01 2016-02-05_18:00:00 wrf: SUCCESS COMPLETE WRF
