taskid: 0 hostname: p10a51.pbm.ihost.com
  Ntasks in X  10 , ntasks in Y  16
 Setting blank km_opt entries to domain #1 values.
  --> The km_opt entry in the namelist.input is now max_domains.
 Setting blank diff_opt entries to domain #1 values.
  --> The diff_opt entry in the namelist.input is now max_domains.
 --- WARNING: traj_opt is zero, but num_traj is not zero; setting num_traj to zero.
 --- NOTE: hypsometric_opt is 2, setting adjust_heights = F
 --- NOTE: sst_update is 0, setting io_form_auxinput4 = 0 and auxinput4_interval = 0 for all domains
 --- NOTE: sst_update is 0, setting io_form_auxinput4 = 0 and auxinput4_interval = 0 for all domains
 --- NOTE: sst_update is 0, setting io_form_auxinput4 = 0 and auxinput4_interval = 0 for all domains
 --- NOTE: sst_update is 0, setting io_form_auxinput4 = 0 and auxinput4_interval = 0 for all domains
 --- NOTE: grid_fdda is 0 for domain      1, setting gfdda interval and ending time to 0 for that domain.
 --- NOTE: both grid_sfdda and pxlsm_soil_nudge are 0 for domain      1, setting sgfdda interval and ending time to 0 for that domain.
 --- NOTE: obs_nudge_opt is 0 for domain      1, setting obs nudging interval and ending time to 0 for that domain.
 --- NOTE: grid_fdda is 0 for domain      2, setting gfdda interval and ending time to 0 for that domain.
 --- NOTE: both grid_sfdda and pxlsm_soil_nudge are 0 for domain      2, setting sgfdda interval and ending time to 0 for that domain.
 --- NOTE: obs_nudge_opt is 0 for domain      2, setting obs nudging interval and ending time to 0 for that domain.
 --- NOTE: grid_fdda is 0 for domain      3, setting gfdda interval and ending time to 0 for that domain.
 --- NOTE: both grid_sfdda and pxlsm_soil_nudge are 0 for domain      3, setting sgfdda interval and ending time to 0 for that domain.
 --- NOTE: obs_nudge_opt is 0 for domain      3, setting obs nudging interval and ending time to 0 for that domain.
 --- NOTE: grid_fdda is 0 for domain      4, setting gfdda interval and ending time to 0 for that domain.
 --- NOTE: both grid_sfdda and pxlsm_soil_nudge are 0 for domain      4, setting sgfdda interval and ending time to 0 for that domain.
 --- NOTE: obs_nudge_opt is 0 for domain      4, setting obs nudging interval and ending time to 0 for that domain.
 bl_pbl_physics /= 4, implies mfshconv must be 0, resetting
 --- NOTE: num_soil_layers has been set to      4
 WRF V3.6 MODEL
  *************************************
  Parent domain
  ids,ide,jds,jde  1 271 1 181
  ims,ime,jms,jme  -4 34 -4 19
  ips,ipe,jps,jpe  1 27 1 12
  *************************************
 DYNAMICS OPTION: Eulerian Mass Coordinate
    alloc_space_field: domain  1 ,  95252168  bytes allocated
   med_initialdata_input: calling input_input
Timing for processing wrfinput file (stream 0) for domain        1:    3.87787 elapsed seconds
 INPUT LandUse = "USGS"
  LANDUSE TYPE = "USGS" FOUND 33  CATEGORIES 2  SEASONS WATER CATEGORY =  16  SNOW CATEGORY =  24
 INITIALIZE THREE Noah LSM RELATED TABLES
  LANDUSE TYPE = USGS FOUND 27  CATEGORIES
  INPUT SOIL TEXTURE CLASSIFICATION = STAS
  SOIL TEXTURE CLASSIFICATION = STAS FOUND 19  CATEGORIES
 *********************************************************************
 *             PROGRAM:WRF/CHEM V3.6 MODEL
 *                                                                   *
 *    PLEASE REPORT ANY BUGS TO WRF/CHEM HELP at                     *
 *                                                                   *
 *              wrfchemhelp.gsd@noaa.gov                             *
 *                                                                   *
 *********************************************************************
 WARNING: dust option 1 currently works only with the GOCART aerosol option.
 WARNING: sea salt option 1 currently works only with the GOCART aerosol option.
  *************************************
  Nesting domain
  ids,ide,jds,jde  1 361 1 253
  ims,ime,jms,jme  -4 48 -4 27
  ips,ipe,jps,jpe  1 36 1 16
  INTERMEDIATE domain
  ids,ide,jds,jde  74 199 47 136
  ims,ime,jms,jme  69 97 42 63
  ips,ipe,jps,jpe  72 87 45 53
  *************************************
 d01 2016-02-05_12:00:00  alloc_space_field: domain  2 ,  168236264  bytes allocated
 d01 2016-02-05_12:00:00  alloc_space_field: domain  2 ,  8036248  bytes allocated
 d01 2016-02-05_12:00:00 *** Initializing nest domain # 2 from an input file. ***
 d01 2016-02-05_12:00:00 med_initialdata_input: calling input_input
Timing for processing wrfinput file (stream 0) for domain        2:    7.17680 elapsed seconds
 INPUT LandUse = "USGS"
  LANDUSE TYPE = "USGS" FOUND 33  CATEGORIES 2  SEASONS WATER CATEGORY =  16  SNOW CATEGORY =  24
 INITIALIZE THREE Noah LSM RELATED TABLES
  LANDUSE TYPE = USGS FOUND 27  CATEGORIES
  INPUT SOIL TEXTURE CLASSIFICATION = STAS
  SOIL TEXTURE CLASSIFICATION = STAS FOUND 19  CATEGORIES
 *********************************************************************
 *             PROGRAM:WRF/CHEM V3.6 MODEL
 *                                                                   *
 *    PLEASE REPORT ANY BUGS TO WRF/CHEM HELP at                     *
 *                                                                   *
 *              wrfchemhelp.gsd@noaa.gov                             *
 *                                                                   *
 *********************************************************************
 WARNING: dust option 1 currently works only with the GOCART aerosol option.
 WARNING: sea salt option 1 currently works only with the GOCART aerosol option.
 INPUT LandUse = "USGS"
  LANDUSE TYPE = "USGS" FOUND 33  CATEGORIES 2  SEASONS WATER CATEGORY =  16  SNOW CATEGORY =  24
 INITIALIZE THREE Noah LSM RELATED TABLES
  LANDUSE TYPE = USGS FOUND 27  CATEGORIES
  INPUT SOIL TEXTURE CLASSIFICATION = STAS
  SOIL TEXTURE CLASSIFICATION = STAS FOUND 19  CATEGORIES
 *********************************************************************
 *             PROGRAM:WRF/CHEM V3.6 MODEL
 *                                                                   *
 *    PLEASE REPORT ANY BUGS TO WRF/CHEM HELP at                     *
 *                                                                   *
 *              wrfchemhelp.gsd@noaa.gov                             *
 *                                                                   *
 *********************************************************************
 WARNING: dust option 1 currently works only with the GOCART aerosol option.
 WARNING: sea salt option 1 currently works only with the GOCART aerosol option.
 INPUT LandUse = "USGS"
  LANDUSE TYPE = "USGS" FOUND 33  CATEGORIES 2  SEASONS WATER CATEGORY =  16  SNOW CATEGORY =  24
 INITIALIZE THREE Noah LSM RELATED TABLES
  LANDUSE TYPE = USGS FOUND 27  CATEGORIES
  INPUT SOIL TEXTURE CLASSIFICATION = STAS
  SOIL TEXTURE CLASSIFICATION = STAS FOUND 19  CATEGORIES
 *********************************************************************
 *             PROGRAM:WRF/CHEM V3.6 MODEL
 *                                                                   *
 *    PLEASE REPORT ANY BUGS TO WRF/CHEM HELP at                     *
 *                                                                   *
 *              wrfchemhelp.gsd@noaa.gov                             *
 *                                                                   *
 *********************************************************************
 WARNING: dust option 1 currently works only with the GOCART aerosol option.
 WARNING: sea salt option 1 currently works only with the GOCART aerosol option.
Timing for Writing wrfout_d01_2016-02-05_12:00:00 for domain        1:    1.44319 elapsed seconds
  mediation_integrate: med_read_wrf_chem_emissions: Open file wrfchemi_12z_d01
  HOURLY EMISSIONS UPDATE TIME         .0        .0
 mediation_integrate: med_read_wrf_chem_emissions: Read emissions for time 2016-02-05_12:00:00
 **WARNING** Time in input file not being checked **WARNING**
Timing for processing lateral boundary for domain        1:    3.16952 elapsed seconds
  Tile Strategy is not specified. Assuming 1D-Y
 WRF TILE   1 IS      1 IE     27 JS      1 JE     12
 WRF NUMBER OF TILES =   1
  photolysis_driver: called for domain  1
  *************************************
  Nesting domain
  ids,ide,jds,jde  1 307 1 241
  ims,ime,jms,jme  -4 42 -4 27
  ips,ipe,jps,jpe  1 31 1 15
  INTERMEDIATE domain
  ids,ide,jds,jde  124 231 35 120
  ims,ime,jms,jme  119 145 30 51
  ips,ipe,jps,jpe  122 135 33 41
  *************************************
 d02 2016-02-05_12:00:00  alloc_space_field: domain  3 ,  149693108  bytes allocated
 d02 2016-02-05_12:00:00  alloc_space_field: domain  3 ,  7482024  bytes allocated
 d02 2016-02-05_12:00:00 *** Initializing nest domain # 3 from an input file. ***
 d02 2016-02-05_12:00:00 med_initialdata_input: calling input_input
Timing for processing wrfinput file (stream 0) for domain        3:    6.14179 elapsed seconds
 INPUT LandUse = "USGS"
  LANDUSE TYPE = "USGS" FOUND 33  CATEGORIES 2  SEASONS WATER CATEGORY =  16  SNOW CATEGORY =  24
 INITIALIZE THREE Noah LSM RELATED TABLES
  LANDUSE TYPE = USGS FOUND 27  CATEGORIES
  INPUT SOIL TEXTURE CLASSIFICATION = STAS
  SOIL TEXTURE CLASSIFICATION = STAS FOUND 19  CATEGORIES
 *********************************************************************
 *             PROGRAM:WRF/CHEM V3.6 MODEL
 *                                                                   *
 *    PLEASE REPORT ANY BUGS TO WRF/CHEM HELP at                     *
 *                                                                   *
 *              wrfchemhelp.gsd@noaa.gov                             *
 *                                                                   *
 *********************************************************************
 WARNING: dust option 1 currently works only with the GOCART aerosol option.
 WARNING: sea salt option 1 currently works only with the GOCART aerosol option.
 INPUT LandUse = "USGS"
  LANDUSE TYPE = "USGS" FOUND 33  CATEGORIES 2  SEASONS WATER CATEGORY =  16  SNOW CATEGORY =  24
 INITIALIZE THREE Noah LSM RELATED TABLES
  LANDUSE TYPE = USGS FOUND 27  CATEGORIES
  INPUT SOIL TEXTURE CLASSIFICATION = STAS
  SOIL TEXTURE CLASSIFICATION = STAS FOUND 19  CATEGORIES
 *********************************************************************
 *             PROGRAM:WRF/CHEM V3.6 MODEL
 *                                                                   *
 *    PLEASE REPORT ANY BUGS TO WRF/CHEM HELP at                     *
 *                                                                   *
 *              wrfchemhelp.gsd@noaa.gov                             *
 *                                                                   *
 *********************************************************************
 WARNING: dust option 1 currently works only with the GOCART aerosol option.
 WARNING: sea salt option 1 currently works only with the GOCART aerosol option.
 INPUT LandUse = "USGS"
  LANDUSE TYPE = "USGS" FOUND 33  CATEGORIES 2  SEASONS WATER CATEGORY =  16  SNOW CATEGORY =  24
 INITIALIZE THREE Noah LSM RELATED TABLES
  LANDUSE TYPE = USGS FOUND 27  CATEGORIES
  INPUT SOIL TEXTURE CLASSIFICATION = STAS
  SOIL TEXTURE CLASSIFICATION = STAS FOUND 19  CATEGORIES
 *********************************************************************
 *             PROGRAM:WRF/CHEM V3.6 MODEL
 *                                                                   *
 *    PLEASE REPORT ANY BUGS TO WRF/CHEM HELP at                     *
 *                                                                   *
 *              wrfchemhelp.gsd@noaa.gov                             *
 *                                                                   *
 *********************************************************************
 WARNING: dust option 1 currently works only with the GOCART aerosol option.
 WARNING: sea salt option 1 currently works only with the GOCART aerosol option.
  *************************************
  Nesting domain
  ids,ide,jds,jde  1 217 1 388
  ims,ime,jms,jme  -4 33 -4 36
  ips,ipe,jps,jpe  1 22 1 25
  INTERMEDIATE domain
  ids,ide,jds,jde  225 302 83 217
  ims,ime,jms,jme  220 243 78 102
  ips,ipe,jps,jpe  223 233 81 92
  *************************************
 d02 2016-02-05_12:00:00  alloc_space_field: domain  4 ,  154732412  bytes allocated
 d02 2016-02-05_12:00:00  alloc_space_field: domain  4 ,  7557600  bytes allocated
 d02 2016-02-05_12:00:00 *** Initializing nest domain # 4 from an input file. ***
 d02 2016-02-05_12:00:00 med_initialdata_input: calling input_input
Timing for processing wrfinput file (stream 0) for domain        4:    7.28196 elapsed seconds
 INPUT LandUse = "USGS"
  LANDUSE TYPE = "USGS" FOUND 33  CATEGORIES 2  SEASONS WATER CATEGORY =  16  SNOW CATEGORY =  24
 INITIALIZE THREE Noah LSM RELATED TABLES
  LANDUSE TYPE = USGS FOUND 27  CATEGORIES
  INPUT SOIL TEXTURE CLASSIFICATION = STAS
  SOIL TEXTURE CLASSIFICATION = STAS FOUND 19  CATEGORIES
 *********************************************************************
 *             PROGRAM:WRF/CHEM V3.6 MODEL
 *                                                                   *
 *    PLEASE REPORT ANY BUGS TO WRF/CHEM HELP at                     *
 *                                                                   *
 *              wrfchemhelp.gsd@noaa.gov                             *
 *                                                                   *
 *********************************************************************
 WARNING: dust option 1 currently works only with the GOCART aerosol option.
 WARNING: sea salt option 1 currently works only with the GOCART aerosol option.
 INPUT LandUse = "USGS"
  LANDUSE TYPE = "USGS" FOUND 33  CATEGORIES 2  SEASONS WATER CATEGORY =  16  SNOW CATEGORY =  24
 INITIALIZE THREE Noah LSM RELATED TABLES
  LANDUSE TYPE = USGS FOUND 27  CATEGORIES
  INPUT SOIL TEXTURE CLASSIFICATION = STAS
  SOIL TEXTURE CLASSIFICATION = STAS FOUND 19  CATEGORIES
 *********************************************************************
 *             PROGRAM:WRF/CHEM V3.6 MODEL
 *                                                                   *
 *    PLEASE REPORT ANY BUGS TO WRF/CHEM HELP at                     *
 *                                                                   *
 *              wrfchemhelp.gsd@noaa.gov                             *
 *                                                                   *
 *********************************************************************
 WARNING: dust option 1 currently works only with the GOCART aerosol option.
 WARNING: sea salt option 1 currently works only with the GOCART aerosol option.
 INPUT LandUse = "USGS"
  LANDUSE TYPE = "USGS" FOUND 33  CATEGORIES 2  SEASONS WATER CATEGORY =  16  SNOW CATEGORY =  24
 INITIALIZE THREE Noah LSM RELATED TABLES
  LANDUSE TYPE = USGS FOUND 27  CATEGORIES
  INPUT SOIL TEXTURE CLASSIFICATION = STAS
  SOIL TEXTURE CLASSIFICATION = STAS FOUND 19  CATEGORIES
 *********************************************************************
 *             PROGRAM:WRF/CHEM V3.6 MODEL
 *                                                                   *
 *    PLEASE REPORT ANY BUGS TO WRF/CHEM HELP at                     *
 *                                                                   *
 *              wrfchemhelp.gsd@noaa.gov                             *
 *                                                                   *
 *********************************************************************
 WARNING: dust option 1 currently works only with the GOCART aerosol option.
 WARNING: sea salt option 1 currently works only with the GOCART aerosol option.
Timing for Writing wrfout_d02_2016-02-05_12:00:00 for domain        2:    2.07744 elapsed seconds
  mediation_integrate: med_read_wrf_chem_emissions: Open file wrfchemi_12z_d02
  HOURLY EMISSIONS UPDATE TIME         .0        .0
 mediation_integrate: med_read_wrf_chem_emissions: Read emissions for time 2016-02-05_12:00:00
 **WARNING** Time in input file not being checked **WARNING**
  Tile Strategy is not specified. Assuming 1D-Y
 WRF TILE   1 IS      1 IE     36 JS      1 JE     16
 WRF NUMBER OF TILES =   1
  photolysis_driver: called for domain  2
Timing for Writing wrfout_d03_2016-02-05_12:00:00 for domain        3:    1.84856 elapsed seconds
  mediation_integrate: med_read_wrf_chem_emissions: Open file wrfchemi_12z_d03
  HOURLY EMISSIONS UPDATE TIME         .0        .0
 mediation_integrate: med_read_wrf_chem_emissions: Read emissions for time 2016-02-05_12:00:00
 **WARNING** Time in input file not being checked **WARNING**
  Tile Strategy is not specified. Assuming 1D-Y
 WRF TILE   1 IS      1 IE     31 JS      1 JE     15
 WRF NUMBER OF TILES =   1
  photolysis_driver: called for domain  3
Timing for main: time 2016-02-05_12:00:13 on domain   3:    4.95255 elapsed seconds
Timing for main: time 2016-02-05_12:00:26 on domain   3:     .24055 elapsed seconds
Timing for main: time 2016-02-05_12:00:40 on domain   3:     .19083 elapsed seconds
Timing for Writing wrfout_d04_2016-02-05_12:00:00 for domain        4:    1.92993 elapsed seconds
  mediation_integrate: med_read_wrf_chem_emissions: Open file wrfchemi_12z_d04
  HOURLY EMISSIONS UPDATE TIME         .0        .0
 mediation_integrate: med_read_wrf_chem_emissions: Read emissions for time 2016-02-05_12:00:00
 **WARNING** Time in input file not being checked **WARNING**
  Tile Strategy is not specified. Assuming 1D-Y
 WRF TILE   1 IS      1 IE     22 JS      1 JE     25
 WRF NUMBER OF TILES =   1
  photolysis_driver: called for domain  4
Timing for main: time 2016-02-05_12:00:20 on domain   4:    5.20212 elapsed seconds
Timing for main: time 2016-02-05_12:00:40 on domain   4:     .20305 elapsed seconds
Timing for main: time 2016-02-05_12:00:40 on domain   2:   35.61591 elapsed seconds
Timing for main: time 2016-02-05_12:00:53 on domain   3:     .18543 elapsed seconds
Timing for main: time 2016-02-05_12:01:06 on domain   3:     .17838 elapsed seconds
Timing for main: time 2016-02-05_12:01:20 on domain   3:     .17964 elapsed seconds
Timing for main: time 2016-02-05_12:01:00 on domain   4:     .21557 elapsed seconds
Timing for main: time 2016-02-05_12:01:20 on domain   4:     .21219 elapsed seconds
Timing for main: time 2016-02-05_12:01:20 on domain   2:    1.62024 elapsed seconds
Timing for main: time 2016-02-05_12:01:33 on domain   3:     .18465 elapsed seconds
Timing for main: time 2016-02-05_12:01:46 on domain   3:     .18317 elapsed seconds
Timing for main: time 2016-02-05_12:02:00 on domain   3:     .18009 elapsed seconds
Timing for main: time 2016-02-05_12:01:40 on domain   4:     .21359 elapsed seconds
Timing for main: time 2016-02-05_12:02:00 on domain   4:     .21248 elapsed seconds
Timing for main: time 2016-02-05_12:02:00 on domain   2:    1.66042 elapsed seconds
Timing for main: time 2016-02-05_12:02:00 on domain   1:   56.72567 elapsed seconds
Timing for main: time 2016-02-05_12:02:13 on domain   3:     .18525 elapsed seconds
Timing for main: time 2016-02-05_12:02:26 on domain   3:     .17846 elapsed seconds
Timing for main: time 2016-02-05_12:02:40 on domain   3:     .17923 elapsed seconds
Timing for main: time 2016-02-05_12:02:20 on domain   4:     .21374 elapsed seconds
Timing for main: time 2016-02-05_12:02:40 on domain   4:     .21262 elapsed seconds
Timing for main: time 2016-02-05_12:02:40 on domain   2:    1.66733 elapsed seconds
Timing for main: time 2016-02-05_12:02:53 on domain   3:     .18498 elapsed seconds
Timing for main: time 2016-02-05_12:03:06 on domain   3:     .17902 elapsed seconds
Timing for main: time 2016-02-05_12:03:20 on domain   3:     .17955 elapsed seconds
Timing for main: time 2016-02-05_12:03:00 on domain   4:     .21386 elapsed seconds
Timing for main: time 2016-02-05_12:03:20 on domain   4:     .21326 elapsed seconds
Timing for main: time 2016-02-05_12:03:20 on domain   2:    1.65928 elapsed seconds
Timing for main: time 2016-02-05_12:03:33 on domain   3:     .18772 elapsed seconds
Timing for main: time 2016-02-05_12:03:46 on domain   3:     .18023 elapsed seconds
Timing for main: time 2016-02-05_12:04:00 on domain   3:     .17892 elapsed seconds
Timing for main: time 2016-02-05_12:03:40 on domain   4:     .21345 elapsed seconds
Timing for main: time 2016-02-05_12:04:00 on domain   4:     .21260 elapsed seconds
Timing for main: time 2016-02-05_12:04:00 on domain   2:    1.66071 elapsed seconds
Timing for main: time 2016-02-05_12:04:00 on domain   1:    5.32341 elapsed seconds
Timing for main: time 2016-02-05_12:04:13 on domain   3:     .18590 elapsed seconds
Timing for main: time 2016-02-05_12:04:26 on domain   3:     .18204 elapsed seconds
Timing for main: time 2016-02-05_12:04:40 on domain   3:     .17945 elapsed seconds
Timing for main: time 2016-02-05_12:04:20 on domain   4:     .21467 elapsed seconds
Timing for main: time 2016-02-05_12:04:40 on domain   4:     .21460 elapsed seconds
Timing for main: time 2016-02-05_12:04:40 on domain   2:    1.67065 elapsed seconds
Timing for main: time 2016-02-05_12:04:53 on domain   3:     .18542 elapsed seconds
Timing for main: time 2016-02-05_12:05:06 on domain   3:     .18781 elapsed seconds
Timing for main: time 2016-02-05_12:05:20 on domain   3:     .17914 elapsed seconds
Timing for main: time 2016-02-05_12:05:00 on domain   4:     .22151 elapsed seconds
Timing for main: time 2016-02-05_12:05:20 on domain   4:     .21256 elapsed seconds
Timing for main: time 2016-02-05_12:05:20 on domain   2:    1.68766 elapsed seconds
Timing for main: time 2016-02-05_12:05:33 on domain   3:     .18560 elapsed seconds
Timing for main: time 2016-02-05_12:05:46 on domain   3:     .18002 elapsed seconds
Timing for main: time 2016-02-05_12:06:00 on domain   3:     .17958 elapsed seconds
Timing for main: time 2016-02-05_12:05:40 on domain   4:     .21383 elapsed seconds
Timing for main: time 2016-02-05_12:06:00 on domain   4:     .21464 elapsed seconds
Timing for main: time 2016-02-05_12:06:00 on domain   2:    1.66210 elapsed seconds
Timing for main: time 2016-02-05_12:06:00 on domain   1:    5.38911 elapsed seconds
Timing for main: time 2016-02-05_12:06:13 on domain   3:     .18616 elapsed seconds
Timing for main: time 2016-02-05_12:06:26 on domain   3:     .17837 elapsed seconds
Timing for main: time 2016-02-05_12:06:40 on domain   3:     .18583 elapsed seconds
Timing for main: time 2016-02-05_12:06:20 on domain   4:     .21422 elapsed seconds
Timing for main: time 2016-02-05_12:06:40 on domain   4:     .21389 elapsed seconds
Timing for main: time 2016-02-05_12:06:40 on domain   2:    1.67293 elapsed seconds
Timing for main: time 2016-02-05_12:06:53 on domain   3:     .18534 elapsed seconds
Timing for main: time 2016-02-05_12:07:06 on domain   3:     .17996 elapsed seconds
Timing for main: time 2016-02-05_12:07:20 on domain   3:     .17955 elapsed seconds
Timing for main: time 2016-02-05_12:07:00 on domain   4:     .21379 elapsed seconds
Timing for main: time 2016-02-05_12:07:20 on domain   4:     .21389 elapsed seconds
Timing for main: time 2016-02-05_12:07:20 on domain   2:    1.65945 elapsed seconds
Timing for main: time 2016-02-05_12:07:33 on domain   3:     .18610 elapsed seconds
Timing for main: time 2016-02-05_12:07:46 on domain   3:     .17864 elapsed seconds
Timing for main: time 2016-02-05_12:08:00 on domain   3:     .17908 elapsed seconds
Timing for main: time 2016-02-05_12:07:40 on domain   4:     .21502 elapsed seconds
Timing for main: time 2016-02-05_12:08:00 on domain   4:     .21970 elapsed seconds
Timing for main: time 2016-02-05_12:08:00 on domain   2:    1.66695 elapsed seconds
Timing for main: time 2016-02-05_12:08:00 on domain   1:    5.35932 elapsed seconds
Timing for main: time 2016-02-05_12:08:13 on domain   3:     .18512 elapsed seconds
Timing for main: time 2016-02-05_12:08:26 on domain   3:     .22119 elapsed seconds
Timing for main: time 2016-02-05_12:08:40 on domain   3:     .23024 elapsed seconds
Timing for main: time 2016-02-05_12:08:20 on domain   4:     .21399 elapsed seconds
Timing for main: time 2016-02-05_12:08:40 on domain   4:     .21297 elapsed seconds
Timing for main: time 2016-02-05_12:08:40 on domain   2:    1.76005 elapsed seconds
Timing for main: time 2016-02-05_12:08:53 on domain   3:     .18283 elapsed seconds
Timing for main: time 2016-02-05_12:09:06 on domain   3:     .17836 elapsed seconds
Timing for main: time 2016-02-05_12:09:20 on domain   3:     .17977 elapsed seconds
Timing for main: time 2016-02-05_12:09:00 on domain   4:     .21520 elapsed seconds
Timing for main: time 2016-02-05_12:09:20 on domain   4:     .21360 elapsed seconds
Timing for main: time 2016-02-05_12:09:20 on domain   2:    1.66408 elapsed seconds
Timing for main: time 2016-02-05_12:09:33 on domain   3:     .18552 elapsed seconds
Timing for main: time 2016-02-05_12:09:46 on domain   3:     .17993 elapsed seconds
Timing for main: time 2016-02-05_12:10:00 on domain   3:     .18673 elapsed seconds
Timing for main: time 2016-02-05_12:09:40 on domain   4:     .21485 elapsed seconds
Timing for main: time 2016-02-05_12:10:00 on domain   4:     .22353 elapsed seconds
Timing for main: time 2016-02-05_12:10:00 on domain   2:    1.67891 elapsed seconds
Timing for main: time 2016-02-05_12:10:00 on domain   1:    5.46297 elapsed seconds
Timing for main: time 2016-02-05_12:10:13 on domain   3:     .19350 elapsed seconds
Timing for main: time 2016-02-05_12:10:26 on domain   3:     .18186 elapsed seconds
Timing for main: time 2016-02-05_12:10:40 on domain   3:     .18217 elapsed seconds
Timing for main: time 2016-02-05_12:10:20 on domain   4:     .21446 elapsed seconds
Timing for main: time 2016-02-05_12:10:40 on domain   4:     .21528 elapsed seconds
Timing for main: time 2016-02-05_12:10:40 on domain   2:    1.68951 elapsed seconds
Timing for main: time 2016-02-05_12:10:53 on domain   3:     .18536 elapsed seconds
Timing for main: time 2016-02-05_12:11:06 on domain   3:     .17824 elapsed seconds
Timing for main: time 2016-02-05_12:11:20 on domain   3:     .17902 elapsed seconds
Timing for main: time 2016-02-05_12:11:00 on domain   4:     .23741 elapsed seconds
Timing for main: time 2016-02-05_12:11:20 on domain   4:     .21333 elapsed seconds
Timing for main: time 2016-02-05_12:11:20 on domain   2:    1.68441 elapsed seconds
Timing for main: time 2016-02-05_12:11:33 on domain   3:     .18488 elapsed seconds
Timing for main: time 2016-02-05_12:11:46 on domain   3:     .17949 elapsed seconds
Timing for main: time 2016-02-05_12:12:00 on domain   3:     .17868 elapsed seconds
Timing for main: time 2016-02-05_12:11:40 on domain   4:     .21486 elapsed seconds
Timing for main: time 2016-02-05_12:12:00 on domain   4:     .26027 elapsed seconds
Timing for main: time 2016-02-05_12:12:00 on domain   2:    1.70730 elapsed seconds
Timing for main: time 2016-02-05_12:12:00 on domain   1:    5.45042 elapsed seconds
Timing for main: time 2016-02-05_12:12:13 on domain   3:     .18590 elapsed seconds
Timing for main: time 2016-02-05_12:12:26 on domain   3:     .17399 elapsed seconds
Timing for main: time 2016-02-05_12:12:40 on domain   3:     .17846 elapsed seconds
Timing for main: time 2016-02-05_12:12:20 on domain   4:     .21234 elapsed seconds
Timing for main: time 2016-02-05_12:12:40 on domain   4:     .21405 elapsed seconds
Timing for main: time 2016-02-05_12:12:40 on domain   2:    1.67337 elapsed seconds
Timing for main: time 2016-02-05_12:12:53 on domain   3:     .18537 elapsed seconds
Timing for main: time 2016-02-05_12:13:06 on domain   3:     .17802 elapsed seconds
Timing for main: time 2016-02-05_12:13:20 on domain   3:     .17978 elapsed seconds
Timing for main: time 2016-02-05_12:13:00 on domain   4:     .21492 elapsed seconds
Timing for main: time 2016-02-05_12:13:20 on domain   4:     .21328 elapsed seconds
Timing for main: time 2016-02-05_12:13:20 on domain   2:    1.66079 elapsed seconds
Timing for main: time 2016-02-05_12:13:33 on domain   3:     .18490 elapsed seconds
Timing for main: time 2016-02-05_12:13:46 on domain   3:     .17823 elapsed seconds
Timing for main: time 2016-02-05_12:14:00 on domain   3:     .18107 elapsed seconds
Timing for main: time 2016-02-05_12:13:40 on domain   4:     .21454 elapsed seconds
Timing for main: time 2016-02-05_12:14:00 on domain   4:     .24028 elapsed seconds
Timing for main: time 2016-02-05_12:14:00 on domain   2:    1.69327 elapsed seconds
Timing for main: time 2016-02-05_12:14:00 on domain   1:    5.39808 elapsed seconds
Timing for main: time 2016-02-05_12:14:13 on domain   3:     .18524 elapsed seconds
Timing for main: time 2016-02-05_12:14:26 on domain   3:     .18077 elapsed seconds
Timing for main: time 2016-02-05_12:14:40 on domain   3:     .17999 elapsed seconds
Timing for main: time 2016-02-05_12:14:20 on domain   4:     .22590 elapsed seconds
Timing for main: time 2016-02-05_12:14:40 on domain   4:     .21330 elapsed seconds
Timing for main: time 2016-02-05_12:14:40 on domain   2:    1.68032 elapsed seconds
Timing for main: time 2016-02-05_12:14:53 on domain   3:     .18534 elapsed seconds
Timing for main: time 2016-02-05_12:15:06 on domain   3:     .18094 elapsed seconds
Timing for main: time 2016-02-05_12:15:20 on domain   3:     .18585 elapsed seconds
Timing for main: time 2016-02-05_12:15:00 on domain   4:     .22426 elapsed seconds
Timing for main: time 2016-02-05_12:15:20 on domain   4:     .21422 elapsed seconds
Timing for main: time 2016-02-05_12:15:20 on domain   2:    1.68018 elapsed seconds
Timing for main: time 2016-02-05_12:15:33 on domain   3:     .18543 elapsed seconds
Timing for main: time 2016-02-05_12:15:46 on domain   3:     .17842 elapsed seconds
Timing for main: time 2016-02-05_12:16:00 on domain   3:     .17943 elapsed seconds
Timing for main: time 2016-02-05_12:15:40 on domain   4:     .21469 elapsed seconds
Timing for main: time 2016-02-05_12:16:00 on domain   4:     .21317 elapsed seconds
Timing for main: time 2016-02-05_12:16:00 on domain   2:    1.67220 elapsed seconds
Timing for main: time 2016-02-05_12:16:00 on domain   1:    5.42791 elapsed seconds
Timing for main: time 2016-02-05_12:16:13 on domain   3:     .18215 elapsed seconds
Timing for main: time 2016-02-05_12:16:26 on domain   3:     .17827 elapsed seconds
Timing for main: time 2016-02-05_12:16:40 on domain   3:     .17956 elapsed seconds
Timing for main: time 2016-02-05_12:16:20 on domain   4:     .21450 elapsed seconds
Timing for main: time 2016-02-05_12:16:40 on domain   4:     .27019 elapsed seconds
Timing for main: time 2016-02-05_12:16:40 on domain   2:    1.72293 elapsed seconds
Timing for main: time 2016-02-05_12:16:53 on domain   3:     .18512 elapsed seconds
Timing for main: time 2016-02-05_12:17:06 on domain   3:     .17818 elapsed seconds
Timing for main: time 2016-02-05_12:17:20 on domain   3:     .18073 elapsed seconds
Timing for main: time 2016-02-05_12:17:00 on domain   4:     .23169 elapsed seconds
Timing for main: time 2016-02-05_12:17:20 on domain   4:     .21478 elapsed seconds
Timing for main: time 2016-02-05_12:17:20 on domain   2:    1.68028 elapsed seconds
Timing for main: time 2016-02-05_12:17:33 on domain   3:     .18438 elapsed seconds
Timing for main: time 2016-02-05_12:17:46 on domain   3:     .17976 elapsed seconds
Timing for main: time 2016-02-05_12:18:00 on domain   3:     .17933 elapsed seconds
Timing for main: time 2016-02-05_12:17:40 on domain   4:     .21407 elapsed seconds
Timing for main: time 2016-02-05_12:18:00 on domain   4:     .21439 elapsed seconds
Timing for main: time 2016-02-05_12:18:00 on domain   2:    1.65926 elapsed seconds
Timing for main: time 2016-02-05_12:18:00 on domain   1:    5.43161 elapsed seconds
Timing for main: time 2016-02-05_12:18:13 on domain   3:     .18526 elapsed seconds
Timing for main: time 2016-02-05_12:18:26 on domain   3:     .17777 elapsed seconds
Timing for main: time 2016-02-05_12:18:40 on domain   3:     .18025 elapsed seconds
Timing for main: time 2016-02-05_12:18:20 on domain   4:     .21429 elapsed seconds
Timing for main: time 2016-02-05_12:18:40 on domain   4:     .21650 elapsed seconds
Timing for main: time 2016-02-05_12:18:40 on domain   2:    1.66897 elapsed seconds
Timing for main: time 2016-02-05_12:18:53 on domain   3:     .18529 elapsed seconds
Timing for main: time 2016-02-05_12:19:06 on domain   3:     .17960 elapsed seconds
Timing for main: time 2016-02-05_12:19:20 on domain   3:     .18091 elapsed seconds
Timing for main: time 2016-02-05_12:19:00 on domain   4:     .21351 elapsed seconds
Timing for main: time 2016-02-05_12:19:20 on domain   4:     .21337 elapsed seconds
Timing for main: time 2016-02-05_12:19:20 on domain   2:    1.66260 elapsed seconds
Timing for main: time 2016-02-05_12:19:33 on domain   3:     .18534 elapsed seconds
Timing for main: time 2016-02-05_12:19:46 on domain   3:     .18048 elapsed seconds
Timing for main: time 2016-02-05_12:20:00 on domain   3:     .17879 elapsed seconds
Timing for main: time 2016-02-05_12:19:40 on domain   4:     .22050 elapsed seconds
Timing for main: time 2016-02-05_12:20:00 on domain   4:     .22614 elapsed seconds
Timing for main: time 2016-02-05_12:20:00 on domain   2:    1.68125 elapsed seconds
Timing for main: time 2016-02-05_12:20:00 on domain   1:    5.37334 elapsed seconds
Timing for main: time 2016-02-05_12:20:13 on domain   3:     .18499 elapsed seconds
Timing for main: time 2016-02-05_12:20:26 on domain   3:     .18143 elapsed seconds
Timing for main: time 2016-02-05_12:20:40 on domain   3:     .17865 elapsed seconds
Timing for main: time 2016-02-05_12:20:20 on domain   4:     .21450 elapsed seconds
Timing for main: time 2016-02-05_12:20:40 on domain   4:     .21494 elapsed seconds
Timing for main: time 2016-02-05_12:20:40 on domain   2:    1.70272 elapsed seconds
Timing for main: time 2016-02-05_12:20:53 on domain   3:     .18616 elapsed seconds
Timing for main: time 2016-02-05_12:21:06 on domain   3:     .17799 elapsed seconds
Timing for main: time 2016-02-05_12:21:20 on domain   3:     .17983 elapsed seconds
Timing for main: time 2016-02-05_12:21:00 on domain   4:     .21456 elapsed seconds
Timing for main: time 2016-02-05_12:21:20 on domain   4:     .24492 elapsed seconds
Timing for main: time 2016-02-05_12:21:20 on domain   2:    1.69889 elapsed seconds
Timing for main: time 2016-02-05_12:21:33 on domain   3:     .19114 elapsed seconds
Timing for main: time 2016-02-05_12:21:46 on domain   3:     .17824 elapsed seconds
Timing for main: time 2016-02-05_12:22:00 on domain   3:     .18004 elapsed seconds
Timing for main: time 2016-02-05_12:21:40 on domain   4:     .21454 elapsed seconds
Timing for main: time 2016-02-05_12:22:00 on domain   4:     .21339 elapsed seconds
Timing for main: time 2016-02-05_12:22:00 on domain   2:    1.68558 elapsed seconds
Timing for main: time 2016-02-05_12:22:00 on domain   1:    5.46841 elapsed seconds
Timing for main: time 2016-02-05_12:22:13 on domain   3:     .18466 elapsed seconds
Timing for main: time 2016-02-05_12:22:26 on domain   3:     .17894 elapsed seconds
Timing for main: time 2016-02-05_12:22:40 on domain   3:     .17940 elapsed seconds
Timing for main: time 2016-02-05_12:22:20 on domain   4:     .21480 elapsed seconds
Timing for main: time 2016-02-05_12:22:40 on domain   4:     .21335 elapsed seconds
Timing for main: time 2016-02-05_12:22:40 on domain   2:    1.66681 elapsed seconds
Timing for main: time 2016-02-05_12:22:53 on domain   3:     .18485 elapsed seconds
Timing for main: time 2016-02-05_12:23:06 on domain   3:     .17958 elapsed seconds
Timing for main: time 2016-02-05_12:23:20 on domain   3:     .17971 elapsed seconds
Timing for main: time 2016-02-05_12:23:00 on domain   4:     .21429 elapsed seconds
Timing for main: time 2016-02-05_12:23:20 on domain   4:     .21616 elapsed seconds
Timing for main: time 2016-02-05_12:23:20 on domain   2:    1.66378 elapsed seconds
Timing for main: time 2016-02-05_12:23:33 on domain   3:     .18516 elapsed seconds
Timing for main: time 2016-02-05_12:23:46 on domain   3:     .18000 elapsed seconds
Timing for main: time 2016-02-05_12:24:00 on domain   3:     .17748 elapsed seconds
Timing for main: time 2016-02-05_12:23:40 on domain   4:     .21413 elapsed seconds
Timing for main: time 2016-02-05_12:24:00 on domain   4:     .28232 elapsed seconds
Timing for main: time 2016-02-05_12:24:00 on domain   2:    1.77664 elapsed seconds
Timing for main: time 2016-02-05_12:24:00 on domain   1:    5.47539 elapsed seconds
Timing for main: time 2016-02-05_12:24:13 on domain   3:     .18480 elapsed seconds
Timing for main: time 2016-02-05_12:24:26 on domain   3:     .17799 elapsed seconds
Timing for main: time 2016-02-05_12:24:40 on domain   3:     .18155 elapsed seconds
Timing for main: time 2016-02-05_12:24:20 on domain   4:     .21459 elapsed seconds
Timing for main: time 2016-02-05_12:24:40 on domain   4:     .21305 elapsed seconds
Timing for main: time 2016-02-05_12:24:40 on domain   2:    1.66913 elapsed seconds
Timing for main: time 2016-02-05_12:24:53 on domain   3:     .18453 elapsed seconds
Timing for main: time 2016-02-05_12:25:06 on domain   3:     .17832 elapsed seconds
Timing for main: time 2016-02-05_12:25:20 on domain   3:     .18008 elapsed seconds
Timing for main: time 2016-02-05_12:25:00 on domain   4:     .22420 elapsed seconds
Timing for main: time 2016-02-05_12:25:20 on domain   4:     .21307 elapsed seconds
Timing for main: time 2016-02-05_12:25:20 on domain   2:    1.66998 elapsed seconds
Timing for main: time 2016-02-05_12:25:33 on domain   3:     .19439 elapsed seconds
Timing for main: time 2016-02-05_12:25:46 on domain   3:     .18021 elapsed seconds
Timing for main: time 2016-02-05_12:26:00 on domain   3:     .17963 elapsed seconds
Timing for main: time 2016-02-05_12:25:40 on domain   4:     .21502 elapsed seconds
Timing for main: time 2016-02-05_12:26:00 on domain   4:     .21843 elapsed seconds
Timing for main: time 2016-02-05_12:26:00 on domain   2:    1.67636 elapsed seconds
Timing for main: time 2016-02-05_12:26:00 on domain   1:    5.40090 elapsed seconds
Timing for main: time 2016-02-05_12:26:13 on domain   3:     .24436 elapsed seconds
Timing for main: time 2016-02-05_12:26:26 on domain   3:     .17622 elapsed seconds
Timing for main: time 2016-02-05_12:26:40 on domain   3:     .17909 elapsed seconds
Timing for main: time 2016-02-05_12:26:20 on domain   4:     .21486 elapsed seconds
Timing for main: time 2016-02-05_12:26:40 on domain   4:     .21399 elapsed seconds
Timing for main: time 2016-02-05_12:26:40 on domain   2:    1.73334 elapsed seconds
Timing for main: time 2016-02-05_12:26:53 on domain   3:     .18498 elapsed seconds
Timing for main: time 2016-02-05_12:27:06 on domain   3:     .17988 elapsed seconds
Timing for main: time 2016-02-05_12:27:20 on domain   3:     .18091 elapsed seconds
Timing for main: time 2016-02-05_12:27:00 on domain   4:     .21470 elapsed seconds
Timing for main: time 2016-02-05_12:27:20 on domain   4:     .21462 elapsed seconds
Timing for main: time 2016-02-05_12:27:20 on domain   2:    1.66477 elapsed seconds
Timing for main: time 2016-02-05_12:27:33 on domain   3:     .17789 elapsed seconds
Timing for main: time 2016-02-05_12:27:46 on domain   3:     .17915 elapsed seconds
Timing for main: time 2016-02-05_12:28:00 on domain   3:     .17930 elapsed seconds
Timing for main: time 2016-02-05_12:27:40 on domain   4:     .21443 elapsed seconds
Timing for main: time 2016-02-05_12:28:00 on domain   4:     .21457 elapsed seconds
Timing for main: time 2016-02-05_12:28:00 on domain   2:    1.69159 elapsed seconds
Timing for main: time 2016-02-05_12:28:00 on domain   1:    5.44984 elapsed seconds
  photolysis_driver: called for domain  1
Timing for main: time 2016-02-05_12:28:13 on domain   3:     .19036 elapsed seconds
Timing for main: time 2016-02-05_12:28:26 on domain   3:     .17965 elapsed seconds
Timing for main: time 2016-02-05_12:28:40 on domain   3:     .17961 elapsed seconds
Timing for main: time 2016-02-05_12:28:20 on domain   4:     .21500 elapsed seconds
Timing for main: time 2016-02-05_12:28:40 on domain   4:     .21453 elapsed seconds
Timing for main: time 2016-02-05_12:28:40 on domain   2:    1.67300 elapsed seconds
Timing for main: time 2016-02-05_12:28:53 on domain   3:     .18495 elapsed seconds
Timing for main: time 2016-02-05_12:29:06 on domain   3:     .18007 elapsed seconds
Timing for main: time 2016-02-05_12:29:20 on domain   3:     .17876 elapsed seconds
Timing for main: time 2016-02-05_12:29:00 on domain   4:     .21477 elapsed seconds
Timing for main: time 2016-02-05_12:29:20 on domain   4:     .21454 elapsed seconds
Timing for main: time 2016-02-05_12:29:20 on domain   2:    1.66251 elapsed seconds
  photolysis_driver: called for domain  2
Timing for main: time 2016-02-05_12:29:33 on domain   3:     .18568 elapsed seconds
Timing for main: time 2016-02-05_12:29:46 on domain   3:     .18093 elapsed seconds
  photolysis_driver: called for domain  3
Timing for main: time 2016-02-05_12:30:00 on domain   3:    1.04600 elapsed seconds
Timing for main: time 2016-02-05_12:29:40 on domain   4:     .21518 elapsed seconds
  photolysis_driver: called for domain  4
Timing for main: time 2016-02-05_12:30:00 on domain   4:    1.25547 elapsed seconds
Timing for main: time 2016-02-05_12:30:00 on domain   2:    4.65491 elapsed seconds
Timing for main: time 2016-02-05_12:30:00 on domain   1:    9.03845 elapsed seconds
Timing for main: time 2016-02-05_12:30:13 on domain   3:     .35740 elapsed seconds
Timing for main: time 2016-02-05_12:30:26 on domain   3:     .17794 elapsed seconds
Timing for main: time 2016-02-05_12:30:40 on domain   3:     .18647 elapsed seconds
Timing for main: time 2016-02-05_12:30:20 on domain   4:     .42124 elapsed seconds
Timing for main: time 2016-02-05_12:30:40 on domain   4:     .21290 elapsed seconds
Timing for main: time 2016-02-05_12:30:40 on domain   2:    2.26212 elapsed seconds
Timing for main: time 2016-02-05_12:30:53 on domain   3:     .18606 elapsed seconds
Timing for main: time 2016-02-05_12:31:06 on domain   3:     .18407 elapsed seconds
Timing for main: time 2016-02-05_12:31:20 on domain   3:     .17844 elapsed seconds
Timing for main: time 2016-02-05_12:31:00 on domain   4:     .21507 elapsed seconds
Timing for main: time 2016-02-05_12:31:20 on domain   4:     .21297 elapsed seconds
Timing for main: time 2016-02-05_12:31:20 on domain   2:    1.66463 elapsed seconds
Timing for main: time 2016-02-05_12:31:33 on domain   3:     .18347 elapsed seconds
Timing for main: time 2016-02-05_12:31:46 on domain   3:     .17836 elapsed seconds
Timing for main: time 2016-02-05_12:32:00 on domain   3:     .18235 elapsed seconds
Timing for main: time 2016-02-05_12:31:40 on domain   4:     .21365 elapsed seconds
Timing for main: time 2016-02-05_12:32:00 on domain   4:     .21336 elapsed seconds
Timing for main: time 2016-02-05_12:32:00 on domain   2:    1.66871 elapsed seconds
Timing for main: time 2016-02-05_12:32:00 on domain   1:    6.12643 elapsed seconds
Timing for main: time 2016-02-05_12:32:13 on domain   3:     .18366 elapsed seconds
Timing for main: time 2016-02-05_12:32:26 on domain   3:     .17988 elapsed seconds
Timing for main: time 2016-02-05_12:32:40 on domain   3:     .17892 elapsed seconds
Timing for main: time 2016-02-05_12:32:20 on domain   4:     .21519 elapsed seconds
Timing for main: time 2016-02-05_12:32:40 on domain   4:     .21307 elapsed seconds
Timing for main: time 2016-02-05_12:32:40 on domain   2:    1.66397 elapsed seconds
Timing for main: time 2016-02-05_12:32:53 on domain   3:     .18352 elapsed seconds
Timing for main: time 2016-02-05_12:33:06 on domain   3:     .17883 elapsed seconds
Timing for main: time 2016-02-05_12:33:20 on domain   3:     .17990 elapsed seconds
Timing for main: time 2016-02-05_12:33:00 on domain   4:     .21333 elapsed seconds
Timing for main: time 2016-02-05_12:33:20 on domain   4:     .27698 elapsed seconds
Timing for main: time 2016-02-05_12:33:20 on domain   2:    1.71770 elapsed seconds
Timing for main: time 2016-02-05_12:33:33 on domain   3:     .18528 elapsed seconds
Timing for main: time 2016-02-05_12:33:46 on domain   3:     .17863 elapsed seconds
Timing for main: time 2016-02-05_12:34:00 on domain   3:     .17833 elapsed seconds
Timing for main: time 2016-02-05_12:33:40 on domain   4:     .21418 elapsed seconds
Timing for main: time 2016-02-05_12:34:00 on domain   4:     .21316 elapsed seconds
Timing for main: time 2016-02-05_12:34:00 on domain   2:    1.65751 elapsed seconds
Timing for main: time 2016-02-05_12:34:00 on domain   1:    5.39989 elapsed seconds
Timing for main: time 2016-02-05_12:34:13 on domain   3:     .18395 elapsed seconds
Timing for main: time 2016-02-05_12:34:26 on domain   3:     .17779 elapsed seconds
Timing for main: time 2016-02-05_12:34:40 on domain   3:     .17883 elapsed seconds
Timing for main: time 2016-02-05_12:34:20 on domain   4:     .21336 elapsed seconds
Timing for main: time 2016-02-05_12:34:40 on domain   4:     .21315 elapsed seconds
Timing for main: time 2016-02-05_12:34:40 on domain   2:    1.66055 elapsed seconds
Timing for main: time 2016-02-05_12:34:53 on domain   3:     .18491 elapsed seconds
Timing for main: time 2016-02-05_12:35:06 on domain   3:     .17831 elapsed seconds
Timing for main: time 2016-02-05_12:35:20 on domain   3:     .17972 elapsed seconds
Timing for main: time 2016-02-05_12:35:00 on domain   4:     .22201 elapsed seconds
Timing for main: time 2016-02-05_12:35:20 on domain   4:     .21325 elapsed seconds
Timing for main: time 2016-02-05_12:35:20 on domain   2:    1.66680 elapsed seconds
Timing for main: time 2016-02-05_12:35:33 on domain   3:     .18496 elapsed seconds
Timing for main: time 2016-02-05_12:35:46 on domain   3:     .18604 elapsed seconds
Timing for main: time 2016-02-05_12:36:00 on domain   3:     .17962 elapsed seconds
Timing for main: time 2016-02-05_12:35:40 on domain   4:     .21366 elapsed seconds
Timing for main: time 2016-02-05_12:36:00 on domain   4:     .21318 elapsed seconds
Timing for main: time 2016-02-05_12:36:00 on domain   2:    1.66687 elapsed seconds
Timing for main: time 2016-02-05_12:36:00 on domain   1:    5.36177 elapsed seconds
Timing for main: time 2016-02-05_12:36:13 on domain   3:     .18619 elapsed seconds
Timing for main: time 2016-02-05_12:36:26 on domain   3:     .17825 elapsed seconds
Timing for main: time 2016-02-05_12:36:40 on domain   3:     .17922 elapsed seconds
Timing for main: time 2016-02-05_12:36:20 on domain   4:     .21435 elapsed seconds
Timing for main: time 2016-02-05_12:36:40 on domain   4:     .21302 elapsed seconds
Timing for main: time 2016-02-05_12:36:40 on domain   2:    1.66602 elapsed seconds
Timing for main: time 2016-02-05_12:36:53 on domain   3:     .18342 elapsed seconds
Timing for main: time 2016-02-05_12:37:06 on domain   3:     .17868 elapsed seconds
Timing for main: time 2016-02-05_12:37:20 on domain   3:     .24123 elapsed seconds
Timing for main: time 2016-02-05_12:37:00 on domain   4:     .21328 elapsed seconds
Timing for main: time 2016-02-05_12:37:20 on domain   4:     .21294 elapsed seconds
Timing for main: time 2016-02-05_12:37:20 on domain   2:    1.74312 elapsed seconds
Timing for main: time 2016-02-05_12:37:33 on domain   3:     .18690 elapsed seconds
Timing for main: time 2016-02-05_12:37:46 on domain   3:     .18063 elapsed seconds
Timing for main: time 2016-02-05_12:38:00 on domain   3:     .17846 elapsed seconds
Timing for main: time 2016-02-05_12:37:40 on domain   4:     .21319 elapsed seconds
Timing for main: time 2016-02-05_12:38:00 on domain   4:     .21319 elapsed seconds
Timing for main: time 2016-02-05_12:38:00 on domain   2:    1.66161 elapsed seconds
Timing for main: time 2016-02-05_12:38:00 on domain   1:    5.43623 elapsed seconds
Timing for main: time 2016-02-05_12:38:13 on domain   3:     .18344 elapsed seconds
Timing for main: time 2016-02-05_12:38:26 on domain   3:     .17816 elapsed seconds
Timing for main: time 2016-02-05_12:38:40 on domain   3:     .17881 elapsed seconds
Timing for main: time 2016-02-05_12:38:20 on domain   4:     .21430 elapsed seconds
Timing for main: time 2016-02-05_12:38:40 on domain   4:     .21318 elapsed seconds
Timing for main: time 2016-02-05_12:38:40 on domain   2:    1.73434 elapsed seconds
Timing for main: time 2016-02-05_12:38:53 on domain   3:     .18482 elapsed seconds
Timing for main: time 2016-02-05_12:39:06 on domain   3:     .17709 elapsed seconds
Timing for main: time 2016-02-05_12:39:20 on domain   3:     .17906 elapsed seconds
Timing for main: time 2016-02-05_12:39:00 on domain   4:     .21336 elapsed seconds
Timing for main: time 2016-02-05_12:39:20 on domain   4:     .21387 elapsed seconds
Timing for main: time 2016-02-05_12:39:20 on domain   2:    1.65751 elapsed seconds
Timing for main: time 2016-02-05_12:39:33 on domain   3:     .18623 elapsed seconds
Timing for main: time 2016-02-05_12:39:46 on domain   3:     .17937 elapsed seconds
Timing for main: time 2016-02-05_12:40:00 on domain   3:     .17866 elapsed seconds
Timing for main: time 2016-02-05_12:39:40 on domain   4:     .21343 elapsed seconds
Timing for main: time 2016-02-05_12:40:00 on domain   4:     .22302 elapsed seconds
Timing for main: time 2016-02-05_12:40:00 on domain   2:    1.66908 elapsed seconds
Timing for main: time 2016-02-05_12:40:00 on domain   1:    5.42190 elapsed seconds
Timing for main: time 2016-02-05_12:40:13 on domain   3:     .18339 elapsed seconds
Timing for main: time 2016-02-05_12:40:26 on domain   3:     .18517 elapsed seconds
Timing for main: time 2016-02-05_12:40:40 on domain   3:     .17868 elapsed seconds
Timing for main: time 2016-02-05_12:40:20 on domain   4:     .21436 elapsed seconds
Timing for main: time 2016-02-05_12:40:40 on domain   4:     .21341 elapsed seconds
Timing for main: time 2016-02-05_12:40:40 on domain   2:    1.66965 elapsed seconds
Timing for main: time 2016-02-05_12:40:53 on domain   3:     .19144 elapsed seconds
Timing for main: time 2016-02-05_12:41:06 on domain   3:     .17817 elapsed seconds
Timing for main: time 2016-02-05_12:41:20 on domain   3:     .17858 elapsed seconds
Timing for main: time 2016-02-05_12:41:00 on domain   4:     .21379 elapsed seconds
Timing for main: time 2016-02-05_12:41:20 on domain   4:     .21373 elapsed seconds
Timing for main: time 2016-02-05_12:41:20 on domain   2:    1.66464 elapsed seconds
Timing for main: time 2016-02-05_12:41:33 on domain   3:     .18346 elapsed seconds
Timing for main: time 2016-02-05_12:41:46 on domain   3:     .17828 elapsed seconds
Timing for main: time 2016-02-05_12:42:00 on domain   3:     .17853 elapsed seconds
Timing for main: time 2016-02-05_12:41:40 on domain   4:     .21357 elapsed seconds
Timing for main: time 2016-02-05_12:42:00 on domain   4:     .21331 elapsed seconds
Timing for main: time 2016-02-05_12:42:00 on domain   2:    1.65676 elapsed seconds
Timing for main: time 2016-02-05_12:42:00 on domain   1:    5.36024 elapsed seconds
Timing for main: time 2016-02-05_12:42:13 on domain   3:     .18350 elapsed seconds
Timing for main: time 2016-02-05_12:42:26 on domain   3:     .17834 elapsed seconds
Timing for main: time 2016-02-05_12:42:40 on domain   3:     .17845 elapsed seconds
Timing for main: time 2016-02-05_12:42:20 on domain   4:     .21304 elapsed seconds
Timing for main: time 2016-02-05_12:42:40 on domain   4:     .21335 elapsed seconds
Timing for main: time 2016-02-05_12:42:40 on domain   2:    1.67556 elapsed seconds
Timing for main: time 2016-02-05_12:42:53 on domain   3:     .18328 elapsed seconds
Timing for main: time 2016-02-05_12:43:06 on domain   3:     .17866 elapsed seconds
Timing for main: time 2016-02-05_12:43:20 on domain   3:     .17948 elapsed seconds
Timing for main: time 2016-02-05_12:43:00 on domain   4:     .21315 elapsed seconds
Timing for main: time 2016-02-05_12:43:20 on domain   4:     .21341 elapsed seconds
Timing for main: time 2016-02-05_12:43:20 on domain   2:    1.66024 elapsed seconds
Timing for main: time 2016-02-05_12:43:33 on domain   3:     .18351 elapsed seconds
Timing for main: time 2016-02-05_12:43:46 on domain   3:     .17865 elapsed seconds
Timing for main: time 2016-02-05_12:44:00 on domain   3:     .17863 elapsed seconds
Timing for main: time 2016-02-05_12:43:40 on domain   4:     .21427 elapsed seconds
Timing for main: time 2016-02-05_12:44:00 on domain   4:     .21410 elapsed seconds
Timing for main: time 2016-02-05_12:44:00 on domain   2:    1.65865 elapsed seconds
Timing for main: time 2016-02-05_12:44:00 on domain   1:    5.35498 elapsed seconds
Timing for main: time 2016-02-05_12:44:13 on domain   3:     .21208 elapsed seconds
Timing for main: time 2016-02-05_12:44:26 on domain   3:     .17855 elapsed seconds
Timing for main: time 2016-02-05_12:44:40 on domain   3:     .18127 elapsed seconds
Timing for main: time 2016-02-05_12:44:20 on domain   4:     .21312 elapsed seconds
Timing for main: time 2016-02-05_12:44:40 on domain   4:     .21365 elapsed seconds
Timing for main: time 2016-02-05_12:44:40 on domain   2:    1.70361 elapsed seconds
Timing for main: time 2016-02-05_12:44:53 on domain   3:     .18363 elapsed seconds
Timing for main: time 2016-02-05_12:45:06 on domain   3:     .17888 elapsed seconds
Timing for main: time 2016-02-05_12:45:20 on domain   3:     .18034 elapsed seconds
Timing for main: time 2016-02-05_12:45:00 on domain   4:     .22284 elapsed seconds
Timing for main: time 2016-02-05_12:45:20 on domain   4:     .21387 elapsed seconds
Timing for main: time 2016-02-05_12:45:20 on domain   2:    1.66871 elapsed seconds
Timing for main: time 2016-02-05_12:45:33 on domain   3:     .18359 elapsed seconds
Timing for main: time 2016-02-05_12:45:46 on domain   3:     .17890 elapsed seconds
Timing for main: time 2016-02-05_12:46:00 on domain   3:     .18614 elapsed seconds
Timing for main: time 2016-02-05_12:45:40 on domain   4:     .21320 elapsed seconds
Timing for main: time 2016-02-05_12:46:00 on domain   4:     .21335 elapsed seconds
Timing for main: time 2016-02-05_12:46:00 on domain   2:    1.66571 elapsed seconds
Timing for main: time 2016-02-05_12:46:00 on domain   1:    5.39852 elapsed seconds
Timing for main: time 2016-02-05_12:46:13 on domain   3:     .18486 elapsed seconds
Timing for main: time 2016-02-05_12:46:26 on domain   3:     .17874 elapsed seconds
Timing for main: time 2016-02-05_12:46:40 on domain   3:     .17843 elapsed seconds
Timing for main: time 2016-02-05_12:46:20 on domain   4:     .21296 elapsed seconds
Timing for main: time 2016-02-05_12:46:40 on domain   4:     .21440 elapsed seconds
Timing for main: time 2016-02-05_12:46:40 on domain   2:    1.66485 elapsed seconds
Timing for main: time 2016-02-05_12:46:53 on domain   3:     .18353 elapsed seconds
Timing for main: time 2016-02-05_12:47:06 on domain   3:     .17860 elapsed seconds
Timing for main: time 2016-02-05_12:47:20 on domain   3:     .17840 elapsed seconds
Timing for main: time 2016-02-05_12:47:00 on domain   4:     .21485 elapsed seconds
Timing for main: time 2016-02-05_12:47:20 on domain   4:     .21265 elapsed seconds
Timing for main: time 2016-02-05_12:47:20 on domain   2:    1.65543 elapsed seconds
Timing for main: time 2016-02-05_12:47:33 on domain   3:     .18356 elapsed seconds
Timing for main: time 2016-02-05_12:47:46 on domain   3:     .17865 elapsed seconds
Timing for main: time 2016-02-05_12:48:00 on domain   3:     .17844 elapsed seconds
Timing for main: time 2016-02-05_12:47:40 on domain   4:     .21323 elapsed seconds
Timing for main: time 2016-02-05_12:48:00 on domain   4:     .21338 elapsed seconds
Timing for main: time 2016-02-05_12:48:00 on domain   2:    1.66686 elapsed seconds
Timing for main: time 2016-02-05_12:48:00 on domain   1:    5.35475 elapsed seconds
Timing for main: time 2016-02-05_12:48:13 on domain   3:     .18398 elapsed seconds
Timing for main: time 2016-02-05_12:48:26 on domain   3:     .17845 elapsed seconds
Timing for main: time 2016-02-05_12:48:40 on domain   3:     .17889 elapsed seconds
Timing for main: time 2016-02-05_12:48:20 on domain   4:     .21347 elapsed seconds
Timing for main: time 2016-02-05_12:48:40 on domain   4:     .21373 elapsed seconds
Timing for main: time 2016-02-05_12:48:40 on domain   2:    1.66341 elapsed seconds
Timing for main: time 2016-02-05_12:48:53 on domain   3:     .18339 elapsed seconds
Timing for main: time 2016-02-05_12:49:06 on domain   3:     .17827 elapsed seconds
Timing for main: time 2016-02-05_12:49:20 on domain   3:     .17854 elapsed seconds
Timing for main: time 2016-02-05_12:49:00 on domain   4:     .21540 elapsed seconds
Timing for main: time 2016-02-05_12:49:20 on domain   4:     .21278 elapsed seconds
Timing for main: time 2016-02-05_12:49:20 on domain   2:    1.65806 elapsed seconds
Timing for main: time 2016-02-05_12:49:33 on domain   3:     .18348 elapsed seconds
Timing for main: time 2016-02-05_12:49:46 on domain   3:     .17884 elapsed seconds
Timing for main: time 2016-02-05_12:50:00 on domain   3:     .17851 elapsed seconds
Timing for main: time 2016-02-05_12:49:40 on domain   4:     .21334 elapsed seconds
Timing for main: time 2016-02-05_12:50:00 on domain   4:     .22286 elapsed seconds
Timing for main: time 2016-02-05_12:50:00 on domain   2:    1.66687 elapsed seconds
Timing for main: time 2016-02-05_12:50:00 on domain   1:    5.34854 elapsed seconds
Timing for main: time 2016-02-05_12:50:13 on domain   3:     .18412 elapsed seconds
Timing for main: time 2016-02-05_12:50:26 on domain   3:     .17894 elapsed seconds
Timing for main: time 2016-02-05_12:50:40 on domain   3:     .17876 elapsed seconds
Timing for main: time 2016-02-05_12:50:20 on domain   4:     .21571 elapsed seconds
Timing for main: time 2016-02-05_12:50:40 on domain   4:     .21322 elapsed seconds
Timing for main: time 2016-02-05_12:50:40 on domain   2:    1.66390 elapsed seconds
Timing for main: time 2016-02-05_12:50:53 on domain   3:     .18780 elapsed seconds
Timing for main: time 2016-02-05_12:51:06 on domain   3:     .18604 elapsed seconds
Timing for main: time 2016-02-05_12:51:20 on domain   3:     .17920 elapsed seconds
Timing for main: time 2016-02-05_12:51:00 on domain   4:     .21385 elapsed seconds
Timing for main: time 2016-02-05_12:51:20 on domain   4:     .21388 elapsed seconds
Timing for main: time 2016-02-05_12:51:20 on domain   2:    1.67839 elapsed seconds
Timing for main: time 2016-02-05_12:51:33 on domain   3:     .18589 elapsed seconds
Timing for main: time 2016-02-05_12:51:46 on domain   3:     .17745 elapsed seconds
Timing for main: time 2016-02-05_12:52:00 on domain   3:     .17916 elapsed seconds
Timing for main: time 2016-02-05_12:51:40 on domain   4:     .21514 elapsed seconds
Timing for main: time 2016-02-05_12:52:00 on domain   4:     .21340 elapsed seconds
Timing for main: time 2016-02-05_12:52:00 on domain   2:    1.66163 elapsed seconds
Timing for main: time 2016-02-05_12:52:00 on domain   1:    5.36390 elapsed seconds
Timing for main: time 2016-02-05_12:52:13 on domain   3:     .18378 elapsed seconds
Timing for main: time 2016-02-05_12:52:26 on domain   3:     .17813 elapsed seconds
Timing for main: time 2016-02-05_12:52:40 on domain   3:     .17941 elapsed seconds
Timing for main: time 2016-02-05_12:52:20 on domain   4:     .21346 elapsed seconds
Timing for main: time 2016-02-05_12:52:40 on domain   4:     .21349 elapsed seconds
Timing for main: time 2016-02-05_12:52:40 on domain   2:    1.66439 elapsed seconds
Timing for main: time 2016-02-05_12:52:53 on domain   3:     .18823 elapsed seconds
Timing for main: time 2016-02-05_12:53:06 on domain   3:     .17919 elapsed seconds
Timing for main: time 2016-02-05_12:53:20 on domain   3:     .24824 elapsed seconds
Timing for main: time 2016-02-05_12:53:00 on domain   4:     .21392 elapsed seconds
Timing for main: time 2016-02-05_12:53:20 on domain   4:     .21672 elapsed seconds
Timing for main: time 2016-02-05_12:53:20 on domain   2:    1.76416 elapsed seconds
Timing for main: time 2016-02-05_12:53:33 on domain   3:     .18420 elapsed seconds
Timing for main: time 2016-02-05_12:53:46 on domain   3:     .17892 elapsed seconds
Timing for main: time 2016-02-05_12:54:00 on domain   3:     .17943 elapsed seconds
Timing for main: time 2016-02-05_12:53:40 on domain   4:     .21391 elapsed seconds
Timing for main: time 2016-02-05_12:54:00 on domain   4:     .21363 elapsed seconds
Timing for main: time 2016-02-05_12:54:00 on domain   2:    1.65945 elapsed seconds
Timing for main: time 2016-02-05_12:54:00 on domain   1:    5.45604 elapsed seconds
Timing for main: time 2016-02-05_12:54:13 on domain   3:     .18327 elapsed seconds
Timing for main: time 2016-02-05_12:54:26 on domain   3:     .17873 elapsed seconds
Timing for main: time 2016-02-05_12:54:40 on domain   3:     .17871 elapsed seconds
Timing for main: time 2016-02-05_12:54:20 on domain   4:     .21348 elapsed seconds
Timing for main: time 2016-02-05_12:54:40 on domain   4:     .21357 elapsed seconds
Timing for main: time 2016-02-05_12:54:40 on domain   2:    1.66352 elapsed seconds
Timing for main: time 2016-02-05_12:54:53 on domain   3:     .18392 elapsed seconds
Timing for main: time 2016-02-05_12:55:06 on domain   3:     .18111 elapsed seconds
Timing for main: time 2016-02-05_12:55:20 on domain   3:     .17634 elapsed seconds
Timing for main: time 2016-02-05_12:55:00 on domain   4:     .22354 elapsed seconds
Timing for main: time 2016-02-05_12:55:20 on domain   4:     .21340 elapsed seconds
Timing for main: time 2016-02-05_12:55:20 on domain   2:    1.66797 elapsed seconds
Timing for main: time 2016-02-05_12:55:33 on domain   3:     .18774 elapsed seconds
Timing for main: time 2016-02-05_12:55:46 on domain   3:     .17976 elapsed seconds
Timing for main: time 2016-02-05_12:56:00 on domain   3:     .17958 elapsed seconds
Timing for main: time 2016-02-05_12:55:40 on domain   4:     .21370 elapsed seconds
Timing for main: time 2016-02-05_12:56:00 on domain   4:     .21343 elapsed seconds
Timing for main: time 2016-02-05_12:56:00 on domain   2:    1.66260 elapsed seconds
Timing for main: time 2016-02-05_12:56:00 on domain   1:    5.35568 elapsed seconds
Timing for main: time 2016-02-05_12:56:13 on domain   3:     .19142 elapsed seconds
Timing for main: time 2016-02-05_12:56:26 on domain   3:     .17852 elapsed seconds
Timing for main: time 2016-02-05_12:56:40 on domain   3:     .17902 elapsed seconds
Timing for main: time 2016-02-05_12:56:20 on domain   4:     .21343 elapsed seconds
Timing for main: time 2016-02-05_12:56:40 on domain   4:     .21343 elapsed seconds
Timing for main: time 2016-02-05_12:56:40 on domain   2:    1.67068 elapsed seconds
Timing for main: time 2016-02-05_12:56:53 on domain   3:     .18350 elapsed seconds
Timing for main: time 2016-02-05_12:57:06 on domain   3:     .17923 elapsed seconds
Timing for main: time 2016-02-05_12:57:20 on domain   3:     .17827 elapsed seconds
Timing for main: time 2016-02-05_12:57:00 on domain   4:     .21421 elapsed seconds
Timing for main: time 2016-02-05_12:57:20 on domain   4:     .21348 elapsed seconds
Timing for main: time 2016-02-05_12:57:20 on domain   2:    1.65799 elapsed seconds
Timing for main: time 2016-02-05_12:57:33 on domain   3:     .18578 elapsed seconds
Timing for main: time 2016-02-05_12:57:46 on domain   3:     .17851 elapsed seconds
Timing for main: time 2016-02-05_12:58:00 on domain   3:     .17869 elapsed seconds
Timing for main: time 2016-02-05_12:57:40 on domain   4:     .21387 elapsed seconds
Timing for main: time 2016-02-05_12:58:00 on domain   4:     .21366 elapsed seconds
Timing for main: time 2016-02-05_12:58:00 on domain   2:    1.66031 elapsed seconds
Timing for main: time 2016-02-05_12:58:00 on domain   1:    5.34880 elapsed seconds
  photolysis_driver: called for domain  1
Timing for main: time 2016-02-05_12:58:13 on domain   3:     .18337 elapsed seconds
Timing for main: time 2016-02-05_12:58:26 on domain   3:     .18022 elapsed seconds
Timing for main: time 2016-02-05_12:58:40 on domain   3:     .17848 elapsed seconds
Timing for main: time 2016-02-05_12:58:20 on domain   4:     .21327 elapsed seconds
Timing for main: time 2016-02-05_12:58:40 on domain   4:     .21334 elapsed seconds
Timing for main: time 2016-02-05_12:58:40 on domain   2:    1.67448 elapsed seconds
Timing for main: time 2016-02-05_12:58:53 on domain   3:     .18273 elapsed seconds
Timing for main: time 2016-02-05_12:59:06 on domain   3:     .17873 elapsed seconds
Timing for main: time 2016-02-05_12:59:20 on domain   3:     .17863 elapsed seconds
Timing for main: time 2016-02-05_12:59:00 on domain   4:     .21459 elapsed seconds
Timing for main: time 2016-02-05_12:59:20 on domain   4:     .21350 elapsed seconds
Timing for main: time 2016-02-05_12:59:20 on domain   2:    1.65880 elapsed seconds
  photolysis_driver: called for domain  2
Timing for main: time 2016-02-05_12:59:33 on domain   3:     .18327 elapsed seconds
Timing for main: time 2016-02-05_12:59:46 on domain   3:     .17872 elapsed seconds
  photolysis_driver: called for domain  3
Timing for main: time 2016-02-05_13:00:00 on domain   3:    1.04520 elapsed seconds
Timing for main: time 2016-02-05_12:59:40 on domain   4:     .21393 elapsed seconds
  photolysis_driver: called for domain  4
Timing for main: time 2016-02-05_13:00:00 on domain   4:    1.24440 elapsed seconds
Timing for main: time 2016-02-05_13:00:00 on domain   2:    4.64194 elapsed seconds
Timing for main: time 2016-02-05_13:00:00 on domain   1:    9.02578 elapsed seconds
Timing for Writing wrfout_d01_2016-02-05_13:00:00 for domain        1:    1.45038 elapsed seconds
  HOURLY EMISSIONS UPDATE TIME     3600.0        .0
 mediation_integrate: med_read_wrf_chem_emissions: Read emissions for time 2016-02-05_13:00:00
 **WARNING** Time in input file not being checked **WARNING**
Timing for Writing wrfout_d02_2016-02-05_13:00:00 for domain        2:    1.95531 elapsed seconds
Timing for Writing wrfout_d03_2016-02-05_13:00:00 for domain        3:    1.75508 elapsed seconds
Timing for main: time 2016-02-05_13:00:13 on domain   3:    2.17009 elapsed seconds
Timing for main: time 2016-02-05_13:00:26 on domain   3:     .21710 elapsed seconds
Timing for main: time 2016-02-05_13:00:40 on domain   3:     .19379 elapsed seconds
Timing for Writing wrfout_d04_2016-02-05_13:00:00 for domain        4:    1.92033 elapsed seconds
Timing for main: time 2016-02-05_13:00:20 on domain   4:    2.43478 elapsed seconds
Timing for main: time 2016-02-05_13:00:40 on domain   4:     .27279 elapsed seconds
Timing for main: time 2016-02-05_13:00:40 on domain   2:    8.58853 elapsed seconds
Timing for main: time 2016-02-05_13:00:53 on domain   3:     .18381 elapsed seconds
Timing for main: time 2016-02-05_13:01:06 on domain   3:     .17899 elapsed seconds
Timing for main: time 2016-02-05_13:01:20 on domain   3:     .18647 elapsed seconds
Timing for main: time 2016-02-05_13:01:00 on domain   4:     .21394 elapsed seconds
Timing for main: time 2016-02-05_13:01:20 on domain   4:     .21338 elapsed seconds
Timing for main: time 2016-02-05_13:01:20 on domain   2:    1.67389 elapsed seconds
Timing for main: time 2016-02-05_13:01:33 on domain   3:     .18357 elapsed seconds
Timing for main: time 2016-02-05_13:01:46 on domain   3:     .17951 elapsed seconds
Timing for main: time 2016-02-05_13:02:00 on domain   3:     .18136 elapsed seconds
Timing for main: time 2016-02-05_13:01:40 on domain   4:     .21375 elapsed seconds
Timing for main: time 2016-02-05_13:02:00 on domain   4:     .21424 elapsed seconds
Timing for main: time 2016-02-05_13:02:00 on domain   2:    1.66230 elapsed seconds
Timing for main: time 2016-02-05_13:02:00 on domain   1:   14.22534 elapsed seconds
Timing for main: time 2016-02-05_13:02:13 on domain   3:     .18395 elapsed seconds
Timing for main: time 2016-02-05_13:02:26 on domain   3:     .18043 elapsed seconds
Timing for main: time 2016-02-05_13:02:40 on domain   3:     .17998 elapsed seconds
Timing for main: time 2016-02-05_13:02:20 on domain   4:     .21382 elapsed seconds
Timing for main: time 2016-02-05_13:02:40 on domain   4:     .21343 elapsed seconds
Timing for main: time 2016-02-05_13:02:40 on domain   2:    1.66825 elapsed seconds
Timing for main: time 2016-02-05_13:02:53 on domain   3:     .18408 elapsed seconds
Timing for main: time 2016-02-05_13:03:06 on domain   3:     .17997 elapsed seconds
Timing for main: time 2016-02-05_13:03:20 on domain   3:     .17907 elapsed seconds
Timing for main: time 2016-02-05_13:03:00 on domain   4:     .21360 elapsed seconds
Timing for main: time 2016-02-05_13:03:20 on domain   4:     .21381 elapsed seconds
Timing for main: time 2016-02-05_13:03:20 on domain   2:    1.66055 elapsed seconds
Timing for main: time 2016-02-05_13:03:33 on domain   3:     .18371 elapsed seconds
Timing for main: time 2016-02-05_13:03:46 on domain   3:     .17928 elapsed seconds
Timing for main: time 2016-02-05_13:04:00 on domain   3:     .17931 elapsed seconds
Timing for main: time 2016-02-05_13:03:40 on domain   4:     .22237 elapsed seconds
Timing for main: time 2016-02-05_13:04:00 on domain   4:     .28845 elapsed seconds
Timing for main: time 2016-02-05_13:04:00 on domain   2:    1.75446 elapsed seconds
Timing for main: time 2016-02-05_13:04:00 on domain   1:    5.44266 elapsed seconds
Timing for main: time 2016-02-05_13:04:13 on domain   3:     .18341 elapsed seconds
Timing for main: time 2016-02-05_13:04:26 on domain   3:     .17824 elapsed seconds
Timing for main: time 2016-02-05_13:04:40 on domain   3:     .17929 elapsed seconds
Timing for main: time 2016-02-05_13:04:20 on domain   4:     .21313 elapsed seconds
Timing for main: time 2016-02-05_13:04:40 on domain   4:     .21355 elapsed seconds
Timing for main: time 2016-02-05_13:04:40 on domain   2:    1.66296 elapsed seconds
Timing for main: time 2016-02-05_13:04:53 on domain   3:     .18321 elapsed seconds
Timing for main: time 2016-02-05_13:05:06 on domain   3:     .17937 elapsed seconds
Timing for main: time 2016-02-05_13:05:20 on domain   3:     .18236 elapsed seconds
Timing for main: time 2016-02-05_13:05:00 on domain   4:     .22315 elapsed seconds
Timing for main: time 2016-02-05_13:05:20 on domain   4:     .21338 elapsed seconds
Timing for main: time 2016-02-05_13:05:20 on domain   2:    1.66832 elapsed seconds
Timing for main: time 2016-02-05_13:05:33 on domain   3:     .18533 elapsed seconds
Timing for main: time 2016-02-05_13:05:46 on domain   3:     .17701 elapsed seconds
Timing for main: time 2016-02-05_13:06:00 on domain   3:     .17887 elapsed seconds
Timing for main: time 2016-02-05_13:05:40 on domain   4:     .21396 elapsed seconds
Timing for main: time 2016-02-05_13:06:00 on domain   4:     .23645 elapsed seconds
Timing for main: time 2016-02-05_13:06:00 on domain   2:    1.68301 elapsed seconds
Timing for main: time 2016-02-05_13:06:00 on domain   1:    5.41941 elapsed seconds
Timing for main: time 2016-02-05_13:06:13 on domain   3:     .18325 elapsed seconds
Timing for main: time 2016-02-05_13:06:26 on domain   3:     .18673 elapsed seconds
Timing for main: time 2016-02-05_13:06:40 on domain   3:     .25400 elapsed seconds
Timing for main: time 2016-02-05_13:06:20 on domain   4:     .21415 elapsed seconds
Timing for main: time 2016-02-05_13:06:40 on domain   4:     .21351 elapsed seconds
Timing for main: time 2016-02-05_13:06:40 on domain   2:    1.73849 elapsed seconds
Timing for main: time 2016-02-05_13:06:53 on domain   3:     .18426 elapsed seconds
Timing for main: time 2016-02-05_13:07:06 on domain   3:     .17898 elapsed seconds
Timing for main: time 2016-02-05_13:07:20 on domain   3:     .18004 elapsed seconds
Timing for main: time 2016-02-05_13:07:00 on domain   4:     .21343 elapsed seconds
Timing for main: time 2016-02-05_13:07:20 on domain   4:     .21326 elapsed seconds
Timing for main: time 2016-02-05_13:07:20 on domain   2:    1.65929 elapsed seconds
Timing for main: time 2016-02-05_13:07:33 on domain   3:     .18316 elapsed seconds
Timing for main: time 2016-02-05_13:07:46 on domain   3:     .17891 elapsed seconds
Timing for main: time 2016-02-05_13:08:00 on domain   3:     .17880 elapsed seconds
Timing for main: time 2016-02-05_13:07:40 on domain   4:     .21409 elapsed seconds
Timing for main: time 2016-02-05_13:08:00 on domain   4:     .21283 elapsed seconds
Timing for main: time 2016-02-05_13:08:00 on domain   2:    1.65673 elapsed seconds
Timing for main: time 2016-02-05_13:08:00 on domain   1:    5.41438 elapsed seconds
Timing for main: time 2016-02-05_13:08:13 on domain   3:     .18356 elapsed seconds
Timing for main: time 2016-02-05_13:08:26 on domain   3:     .17934 elapsed seconds
Timing for main: time 2016-02-05_13:08:40 on domain   3:     .18251 elapsed seconds
Timing for main: time 2016-02-05_13:08:20 on domain   4:     .21608 elapsed seconds
Timing for main: time 2016-02-05_13:08:40 on domain   4:     .21316 elapsed seconds
Timing for main: time 2016-02-05_13:08:40 on domain   2:    1.66797 elapsed seconds
Timing for main: time 2016-02-05_13:08:53 on domain   3:     .18440 elapsed seconds
Timing for main: time 2016-02-05_13:09:06 on domain   3:     .17843 elapsed seconds
Timing for main: time 2016-02-05_13:09:20 on domain   3:     .17931 elapsed seconds
Timing for main: time 2016-02-05_13:09:00 on domain   4:     .21340 elapsed seconds
Timing for main: time 2016-02-05_13:09:20 on domain   4:     .21368 elapsed seconds
Timing for main: time 2016-02-05_13:09:20 on domain   2:    1.67051 elapsed seconds
Timing for main: time 2016-02-05_13:09:33 on domain   3:     .18518 elapsed seconds
Timing for main: time 2016-02-05_13:09:46 on domain   3:     .17860 elapsed seconds
Timing for main: time 2016-02-05_13:10:00 on domain   3:     .17894 elapsed seconds
Timing for main: time 2016-02-05_13:09:40 on domain   4:     .21450 elapsed seconds
Timing for main: time 2016-02-05_13:10:00 on domain   4:     .22300 elapsed seconds
Timing for main: time 2016-02-05_13:10:00 on domain   2:    1.67401 elapsed seconds
Timing for main: time 2016-02-05_13:10:00 on domain   1:    5.37248 elapsed seconds
Timing for main: time 2016-02-05_13:10:13 on domain   3:     .18404 elapsed seconds
Timing for main: time 2016-02-05_13:10:26 on domain   3:     .18635 elapsed seconds
Timing for main: time 2016-02-05_13:10:40 on domain   3:     .18402 elapsed seconds
Timing for main: time 2016-02-05_13:10:20 on domain   4:     .21340 elapsed seconds
Timing for main: time 2016-02-05_13:10:40 on domain   4:     .21327 elapsed seconds
Timing for main: time 2016-02-05_13:10:40 on domain   2:    1.67647 elapsed seconds
Timing for main: time 2016-02-05_13:10:53 on domain   3:     .18910 elapsed seconds
Timing for main: time 2016-02-05_13:11:06 on domain   3:     .17710 elapsed seconds
Timing for main: time 2016-02-05_13:11:20 on domain   3:     .17867 elapsed seconds
Timing for main: time 2016-02-05_13:11:00 on domain   4:     .21330 elapsed seconds
Timing for main: time 2016-02-05_13:11:20 on domain   4:     .21316 elapsed seconds
Timing for main: time 2016-02-05_13:11:20 on domain   2:    1.66226 elapsed seconds
Timing for main: time 2016-02-05_13:11:33 on domain   3:     .19139 elapsed seconds
Timing for main: time 2016-02-05_13:11:46 on domain   3:     .17887 elapsed seconds
Timing for main: time 2016-02-05_13:12:00 on domain   3:     .18098 elapsed seconds
Timing for main: time 2016-02-05_13:11:40 on domain   4:     .21344 elapsed seconds
Timing for main: time 2016-02-05_13:12:00 on domain   4:     .21341 elapsed seconds
Timing for main: time 2016-02-05_13:12:00 on domain   2:    1.66585 elapsed seconds
Timing for main: time 2016-02-05_13:12:00 on domain   1:    5.37257 elapsed seconds
Timing for main: time 2016-02-05_13:12:13 on domain   3:     .18322 elapsed seconds
Timing for main: time 2016-02-05_13:12:26 on domain   3:     .17888 elapsed seconds
Timing for main: time 2016-02-05_13:12:40 on domain   3:     .17905 elapsed seconds
Timing for main: time 2016-02-05_13:12:20 on domain   4:     .21320 elapsed seconds
Timing for main: time 2016-02-05_13:12:40 on domain   4:     .21310 elapsed seconds
Timing for main: time 2016-02-05_13:12:40 on domain   2:    1.66377 elapsed seconds
Timing for main: time 2016-02-05_13:12:53 on domain   3:     .18366 elapsed seconds
Timing for main: time 2016-02-05_13:13:06 on domain   3:     .17862 elapsed seconds
Timing for main: time 2016-02-05_13:13:20 on domain   3:     .17942 elapsed seconds
Timing for main: time 2016-02-05_13:13:00 on domain   4:     .21467 elapsed seconds
Timing for main: time 2016-02-05_13:13:20 on domain   4:     .21325 elapsed seconds
Timing for main: time 2016-02-05_13:13:20 on domain   2:    1.66015 elapsed seconds
Timing for main: time 2016-02-05_13:13:33 on domain   3:     .18461 elapsed seconds
Timing for main: time 2016-02-05_13:13:46 on domain   3:     .17916 elapsed seconds
Timing for main: time 2016-02-05_13:14:00 on domain   3:     .17864 elapsed seconds
Timing for main: time 2016-02-05_13:13:40 on domain   4:     .21540 elapsed seconds
Timing for main: time 2016-02-05_13:14:00 on domain   4:     .21327 elapsed seconds
Timing for main: time 2016-02-05_13:14:00 on domain   2:    1.66192 elapsed seconds
Timing for main: time 2016-02-05_13:14:00 on domain   1:    5.34557 elapsed seconds
Timing for main: time 2016-02-05_13:14:13 on domain   3:     .18357 elapsed seconds
Timing for main: time 2016-02-05_13:14:26 on domain   3:     .17908 elapsed seconds
Timing for main: time 2016-02-05_13:14:40 on domain   3:     .17893 elapsed seconds
Timing for main: time 2016-02-05_13:14:20 on domain   4:     .21311 elapsed seconds
Timing for main: time 2016-02-05_13:14:40 on domain   4:     .21314 elapsed seconds
Timing for main: time 2016-02-05_13:14:40 on domain   2:    1.67236 elapsed seconds
Timing for main: time 2016-02-05_13:14:53 on domain   3:     .18428 elapsed seconds
Timing for main: time 2016-02-05_13:15:06 on domain   3:     .17941 elapsed seconds
Timing for main: time 2016-02-05_13:15:20 on domain   3:     .17952 elapsed seconds
Timing for main: time 2016-02-05_13:15:00 on domain   4:     .22345 elapsed seconds
Timing for main: time 2016-02-05_13:15:20 on domain   4:     .21333 elapsed seconds
Timing for main: time 2016-02-05_13:15:20 on domain   2:    1.67246 elapsed seconds
Timing for main: time 2016-02-05_13:15:33 on domain   3:     .18368 elapsed seconds
Timing for main: time 2016-02-05_13:15:46 on domain   3:     .18044 elapsed seconds
Timing for main: time 2016-02-05_13:16:00 on domain   3:     .17868 elapsed seconds
Timing for main: time 2016-02-05_13:15:40 on domain   4:     .21373 elapsed seconds
Timing for main: time 2016-02-05_13:16:00 on domain   4:     .21380 elapsed seconds
Timing for main: time 2016-02-05_13:16:00 on domain   2:    1.66500 elapsed seconds
Timing for main: time 2016-02-05_13:16:00 on domain   1:    5.37027 elapsed seconds
Timing for main: time 2016-02-05_13:16:13 on domain   3:     .18334 elapsed seconds
Timing for main: time 2016-02-05_13:16:26 on domain   3:     .18015 elapsed seconds
Timing for main: time 2016-02-05_13:16:40 on domain   3:     .18648 elapsed seconds
Timing for main: time 2016-02-05_13:16:20 on domain   4:     .21318 elapsed seconds
Timing for main: time 2016-02-05_13:16:40 on domain   4:     .21319 elapsed seconds
Timing for main: time 2016-02-05_13:16:40 on domain   2:    1.67126 elapsed seconds
Timing for main: time 2016-02-05_13:16:53 on domain   3:     .18338 elapsed seconds
Timing for main: time 2016-02-05_13:17:06 on domain   3:     .17887 elapsed seconds
Timing for main: time 2016-02-05_13:17:20 on domain   3:     .17903 elapsed seconds
Timing for main: time 2016-02-05_13:17:00 on domain   4:     .21316 elapsed seconds
Timing for main: time 2016-02-05_13:17:20 on domain   4:     .21332 elapsed seconds
Timing for main: time 2016-02-05_13:17:20 on domain   2:    1.66000 elapsed seconds
[...]
Timing for main: time 2016-02-05_17:36:00 on domain   2:    1.82085 elapsed seconds
Timing for main: time 2016-02-05_17:36:00 on domain   1:    5.57014 elapsed seconds
Timing for main: time 2016-02-05_17:36:13 on domain   3:     .18639 elapsed seconds
Timing for main: time 2016-02-05_17:36:26 on domain   3:     .17892 elapsed seconds
Timing for main: time 2016-02-05_17:36:40 on domain   3:     .17877 elapsed seconds
Timing for main: time 2016-02-05_17:36:20 on domain   4:     .21326 elapsed seconds
Timing for main: time 2016-02-05_17:36:40 on domain   4:     .21363 elapsed seconds
Timing for main: time 2016-02-05_17:36:40 on domain   2:    1.66545 elapsed seconds
Timing for main: time 2016-02-05_17:36:53 on domain   3:     .18548 elapsed seconds
Timing for main: time 2016-02-05_17:37:06 on domain   3:     .18241 elapsed seconds
Timing for main: time 2016-02-05_17:37:20 on domain   3:     .18759 elapsed seconds
Timing for main: time 2016-02-05_17:37:00 on domain   4:     .21385 elapsed seconds
Timing for main: time 2016-02-05_17:37:20 on domain   4:     .21364 elapsed seconds
Timing for main: time 2016-02-05_17:37:20 on domain   2:    1.67472 elapsed seconds
Timing for main: time 2016-02-05_17:37:33 on domain   3:     .18539 elapsed seconds
Timing for main: time 2016-02-05_17:37:46 on domain   3:     .18258 elapsed seconds
Timing for main: time 2016-02-05_17:38:00 on domain   3:     .17893 elapsed seconds
Timing for main: time 2016-02-05_17:37:40 on domain   4:     .21380 elapsed seconds
Timing for main: time 2016-02-05_17:38:00 on domain   4:     .21412 elapsed seconds
Timing for main: time 2016-02-05_17:38:00 on domain   2:    1.66602 elapsed seconds
Timing for main: time 2016-02-05_17:38:00 on domain   1:    5.37023 elapsed seconds
Timing for main: time 2016-02-05_17:38:13 on domain   3:     .19728 elapsed seconds
Timing for main: time 2016-02-05_17:38:26 on domain   3:     .18369 elapsed seconds
Timing for main: time 2016-02-05_17:38:40 on domain   3:     .17861 elapsed seconds
Timing for main: time 2016-02-05_17:38:20 on domain   4:     .21381 elapsed seconds
Timing for main: time 2016-02-05_17:38:40 on domain   4:     .21540 elapsed seconds
Timing for main: time 2016-02-05_17:38:40 on domain   2:    1.68386 elapsed seconds
Timing for main: time 2016-02-05_17:38:53 on domain   3:     .18507 elapsed seconds
Timing for main: time 2016-02-05_17:39:06 on domain   3:     .17844 elapsed seconds
Timing for main: time 2016-02-05_17:39:20 on domain   3:     .17893 elapsed seconds
Timing for main: time 2016-02-05_17:39:00 on domain   4:     .21325 elapsed seconds
Timing for main: time 2016-02-05_17:39:20 on domain   4:     .21295 elapsed seconds
Timing for main: time 2016-02-05_17:39:20 on domain   2:    1.65821 elapsed seconds
Timing for main: time 2016-02-05_17:39:33 on domain   3:     .18528 elapsed seconds
Timing for main: time 2016-02-05_17:39:46 on domain   3:     .17872 elapsed seconds
Timing for main: time 2016-02-05_17:40:00 on domain   3:     .17865 elapsed seconds
Timing for main: time 2016-02-05_17:39:40 on domain   4:     .21591 elapsed seconds
Timing for main: time 2016-02-05_17:40:00 on domain   4:     .22353 elapsed seconds
Timing for main: time 2016-02-05_17:40:00 on domain   2:    1.67291 elapsed seconds
Timing for main: time 2016-02-05_17:40:00 on domain   1:    5.37750 elapsed seconds
Timing for main: time 2016-02-05_17:40:13 on domain   3:     .18529 elapsed seconds
Timing for main: time 2016-02-05_17:40:26 on domain   3:     .17884 elapsed seconds
Timing for main: time 2016-02-05_17:40:40 on domain   3:     .17896 elapsed seconds
Timing for main: time 2016-02-05_17:40:20 on domain   4:     .21355 elapsed seconds
Timing for main: time 2016-02-05_17:40:40 on domain   4:     .21365 elapsed seconds
Timing for main: time 2016-02-05_17:40:40 on domain   2:    1.66616 elapsed seconds
Timing for main: time 2016-02-05_17:40:53 on domain   3:     .18509 elapsed seconds
Timing for main: time 2016-02-05_17:41:06 on domain   3:     .17957 elapsed seconds
Timing for main: time 2016-02-05_17:41:20 on domain   3:     .18060 elapsed seconds
Timing for main: time 2016-02-05_17:41:00 on domain   4:     .21326 elapsed seconds
Timing for main: time 2016-02-05_17:41:20 on domain   4:     .21389 elapsed seconds
Timing for main: time 2016-02-05_17:41:20 on domain   2:    1.67169 elapsed seconds
Timing for main: time 2016-02-05_17:41:33 on domain   3:     .18541 elapsed seconds
Timing for main: time 2016-02-05_17:41:46 on domain   3:     .17937 elapsed seconds
Timing for main: time 2016-02-05_17:42:00 on domain   3:     .17900 elapsed seconds
Timing for main: time 2016-02-05_17:41:40 on domain   4:     .21329 elapsed seconds
Timing for main: time 2016-02-05_17:42:00 on domain   4:     .21379 elapsed seconds
Timing for main: time 2016-02-05_17:42:00 on domain   2:    1.66220 elapsed seconds
Timing for main: time 2016-02-05_17:42:00 on domain   1:    5.37091 elapsed seconds
Timing for main: time 2016-02-05_17:42:13 on domain   3:     .18521 elapsed seconds
Timing for main: time 2016-02-05_17:42:26 on domain   3:     .18707 elapsed seconds
Timing for main: time 2016-02-05_17:42:40 on domain   3:     .17919 elapsed seconds
Timing for main: time 2016-02-05_17:42:20 on domain   4:     .21845 elapsed seconds
Timing for main: time 2016-02-05_17:42:40 on domain   4:     .21249 elapsed seconds
Timing for main: time 2016-02-05_17:42:40 on domain   2:    1.68000 elapsed seconds
Timing for main: time 2016-02-05_17:42:53 on domain   3:     .18569 elapsed seconds
Timing for main: time 2016-02-05_17:43:06 on domain   3:     .17902 elapsed seconds
Timing for main: time 2016-02-05_17:43:20 on domain   3:     .17914 elapsed seconds
Timing for main: time 2016-02-05_17:43:00 on domain   4:     .21351 elapsed seconds
Timing for main: time 2016-02-05_17:43:20 on domain   4:     .21345 elapsed seconds
Timing for main: time 2016-02-05_17:43:20 on domain   2:    1.66783 elapsed seconds
Timing for main: time 2016-02-05_17:43:33 on domain   3:     .18844 elapsed seconds
Timing for main: time 2016-02-05_17:43:46 on domain   3:     .17722 elapsed seconds
Timing for main: time 2016-02-05_17:44:00 on domain   3:     .17882 elapsed seconds
Timing for main: time 2016-02-05_17:43:40 on domain   4:     .21323 elapsed seconds
Timing for main: time 2016-02-05_17:44:00 on domain   4:     .21407 elapsed seconds
Timing for main: time 2016-02-05_17:44:00 on domain   2:    1.66221 elapsed seconds
Timing for main: time 2016-02-05_17:44:00 on domain   1:    5.37289 elapsed seconds
Timing for main: time 2016-02-05_17:44:13 on domain   3:     .18556 elapsed seconds
Timing for main: time 2016-02-05_17:44:26 on domain   3:     .18110 elapsed seconds
Timing for main: time 2016-02-05_17:44:40 on domain   3:     .17987 elapsed seconds
Timing for main: time 2016-02-05_17:44:20 on domain   4:     .21321 elapsed seconds
Timing for main: time 2016-02-05_17:44:40 on domain   4:     .21386 elapsed seconds
Timing for main: time 2016-02-05_17:44:40 on domain   2:    1.70113 elapsed seconds
Timing for main: time 2016-02-05_17:44:53 on domain   3:     .18543 elapsed seconds
Timing for main: time 2016-02-05_17:45:06 on domain   3:     .17860 elapsed seconds
Timing for main: time 2016-02-05_17:45:20 on domain   3:     .18006 elapsed seconds
Timing for main: time 2016-02-05_17:45:00 on domain   4:     .22268 elapsed seconds
Timing for main: time 2016-02-05_17:45:20 on domain   4:     .21371 elapsed seconds
Timing for main: time 2016-02-05_17:45:20 on domain   2:    1.67079 elapsed seconds
Timing for main: time 2016-02-05_17:45:33 on domain   3:     .18536 elapsed seconds
Timing for main: time 2016-02-05_17:45:46 on domain   3:     .17932 elapsed seconds
Timing for main: time 2016-02-05_17:46:00 on domain   3:     .17942 elapsed seconds
Timing for main: time 2016-02-05_17:45:40 on domain   4:     .21641 elapsed seconds
Timing for main: time 2016-02-05_17:46:00 on domain   4:     .21318 elapsed seconds
Timing for main: time 2016-02-05_17:46:00 on domain   2:    1.66370 elapsed seconds
Timing for main: time 2016-02-05_17:46:00 on domain   1:    5.39968 elapsed seconds
Timing for main: time 2016-02-05_17:46:13 on domain   3:     .18545 elapsed seconds
Timing for main: time 2016-02-05_17:46:26 on domain   3:     .17871 elapsed seconds
Timing for main: time 2016-02-05_17:46:40 on domain   3:     .17902 elapsed seconds
Timing for main: time 2016-02-05_17:46:20 on domain   4:     .21697 elapsed seconds
Timing for main: time 2016-02-05_17:46:40 on domain   4:     .21366 elapsed seconds
Timing for main: time 2016-02-05_17:46:40 on domain   2:    1.67856 elapsed seconds
Timing for main: time 2016-02-05_17:46:53 on domain   3:     .18540 elapsed seconds
Timing for main: time 2016-02-05_17:47:06 on domain   3:     .17907 elapsed seconds
Timing for main: time 2016-02-05_17:47:20 on domain   3:     .17906 elapsed seconds
Timing for main: time 2016-02-05_17:47:00 on domain   4:     .21335 elapsed seconds
Timing for main: time 2016-02-05_17:47:20 on domain   4:     .21409 elapsed seconds
Timing for main: time 2016-02-05_17:47:20 on domain   2:    1.66504 elapsed seconds
Timing for main: time 2016-02-05_17:47:33 on domain   3:     .19371 elapsed seconds
Timing for main: time 2016-02-05_17:47:46 on domain   3:     .17934 elapsed seconds
Timing for main: time 2016-02-05_17:48:00 on domain   3:     .17945 elapsed seconds
Timing for main: time 2016-02-05_17:47:40 on domain   4:     .21321 elapsed seconds
Timing for main: time 2016-02-05_17:48:00 on domain   4:     .21360 elapsed seconds
Timing for main: time 2016-02-05_17:48:00 on domain   2:    1.66850 elapsed seconds
Timing for main: time 2016-02-05_17:48:00 on domain   1:    5.38340 elapsed seconds
Timing for main: time 2016-02-05_17:48:13 on domain   3:     .18542 elapsed seconds
Timing for main: time 2016-02-05_17:48:26 on domain   3:     .17914 elapsed seconds
Timing for main: time 2016-02-05_17:48:40 on domain   3:     .17911 elapsed seconds
Timing for main: time 2016-02-05_17:48:20 on domain   4:     .21351 elapsed seconds
Timing for main: time 2016-02-05_17:48:40 on domain   4:     .21398 elapsed seconds
Timing for main: time 2016-02-05_17:48:40 on domain   2:    1.66703 elapsed seconds
Timing for main: time 2016-02-05_17:48:53 on domain   3:     .18606 elapsed seconds
Timing for main: time 2016-02-05_17:49:06 on domain   3:     .19727 elapsed seconds
Timing for main: time 2016-02-05_17:49:20 on domain   3:     .17908 elapsed seconds
Timing for main: time 2016-02-05_17:49:00 on domain   4:     .21375 elapsed seconds
Timing for main: time 2016-02-05_17:49:20 on domain   4:     .22507 elapsed seconds
Timing for main: time 2016-02-05_17:49:20 on domain   2:    1.69698 elapsed seconds
Timing for main: time 2016-02-05_17:49:33 on domain   3:     .18714 elapsed seconds
Timing for main: time 2016-02-05_17:49:46 on domain   3:     .17855 elapsed seconds
Timing for main: time 2016-02-05_17:50:00 on domain   3:     .17900 elapsed seconds
Timing for main: time 2016-02-05_17:49:40 on domain   4:     .21331 elapsed seconds
Timing for main: time 2016-02-05_17:50:00 on domain   4:     .22279 elapsed seconds
Timing for main: time 2016-02-05_17:50:00 on domain   2:    1.66919 elapsed seconds
Timing for main: time 2016-02-05_17:50:00 on domain   1:    5.39613 elapsed seconds
Timing for main: time 2016-02-05_17:50:13 on domain   3:     .18565 elapsed seconds
Timing for main: time 2016-02-05_17:50:26 on domain   3:     .17951 elapsed seconds
Timing for main: time 2016-02-05_17:50:40 on domain   3:     .17892 elapsed seconds
Timing for main: time 2016-02-05_17:50:20 on domain   4:     .21339 elapsed seconds
Timing for main: time 2016-02-05_17:50:40 on domain   4:     .21328 elapsed seconds
Timing for main: time 2016-02-05_17:50:40 on domain   2:    1.66542 elapsed seconds
Timing for main: time 2016-02-05_17:50:53 on domain   3:     .18548 elapsed seconds
Timing for main: time 2016-02-05_17:51:06 on domain   3:     .18041 elapsed seconds
Timing for main: time 2016-02-05_17:51:20 on domain   3:     .18101 elapsed seconds
Timing for main: time 2016-02-05_17:51:00 on domain   4:     .21456 elapsed seconds
Timing for main: time 2016-02-05_17:51:20 on domain   4:     .21257 elapsed seconds
Timing for main: time 2016-02-05_17:51:20 on domain   2:    1.66657 elapsed seconds
Timing for main: time 2016-02-05_17:51:33 on domain   3:     .18578 elapsed seconds
Timing for main: time 2016-02-05_17:51:46 on domain   3:     .17873 elapsed seconds
Timing for main: time 2016-02-05_17:52:00 on domain   3:     .17927 elapsed seconds
Timing for main: time 2016-02-05_17:51:40 on domain   4:     .21301 elapsed seconds
Timing for main: time 2016-02-05_17:52:00 on domain   4:     .21381 elapsed seconds
Timing for main: time 2016-02-05_17:52:00 on domain   2:    1.67315 elapsed seconds
Timing for main: time 2016-02-05_17:52:00 on domain   1:    5.36789 elapsed seconds
Timing for main: time 2016-02-05_17:52:13 on domain   3:     .18552 elapsed seconds
Timing for main: time 2016-02-05_17:52:26 on domain   3:     .17924 elapsed seconds
Timing for main: time 2016-02-05_17:52:40 on domain   3:     .18684 elapsed seconds
Timing for main: time 2016-02-05_17:52:20 on domain   4:     .21303 elapsed seconds
Timing for main: time 2016-02-05_17:52:40 on domain   4:     .21371 elapsed seconds
Timing for main: time 2016-02-05_17:52:40 on domain   2:    1.67199 elapsed seconds
Timing for main: time 2016-02-05_17:52:53 on domain   3:     .18626 elapsed seconds
Timing for main: time 2016-02-05_17:53:06 on domain   3:     .17887 elapsed seconds
Timing for main: time 2016-02-05_17:53:20 on domain   3:     .17977 elapsed seconds
Timing for main: time 2016-02-05_17:53:00 on domain   4:     .21397 elapsed seconds
Timing for main: time 2016-02-05_17:53:20 on domain   4:     .21314 elapsed seconds
Timing for main: time 2016-02-05_17:53:20 on domain   2:    1.66257 elapsed seconds
Timing for main: time 2016-02-05_17:53:33 on domain   3:     .18643 elapsed seconds
Timing for main: time 2016-02-05_17:53:46 on domain   3:     .17775 elapsed seconds
Timing for main: time 2016-02-05_17:54:00 on domain   3:     .17951 elapsed seconds
Timing for main: time 2016-02-05_17:53:40 on domain   4:     .21331 elapsed seconds
Timing for main: time 2016-02-05_17:54:00 on domain   4:     .21715 elapsed seconds
Timing for main: time 2016-02-05_17:54:00 on domain   2:    1.66535 elapsed seconds
Timing for main: time 2016-02-05_17:54:00 on domain   1:    5.37090 elapsed seconds
Timing for main: time 2016-02-05_17:54:13 on domain   3:     .18540 elapsed seconds
Timing for main: time 2016-02-05_17:54:26 on domain   3:     .17926 elapsed seconds
Timing for main: time 2016-02-05_17:54:40 on domain   3:     .17886 elapsed seconds
Timing for main: time 2016-02-05_17:54:20 on domain   4:     .21651 elapsed seconds
Timing for main: time 2016-02-05_17:54:40 on domain   4:     .21315 elapsed seconds
Timing for main: time 2016-02-05_17:54:40 on domain   2:    1.66658 elapsed seconds
Timing for main: time 2016-02-05_17:54:53 on domain   3:     .18589 elapsed seconds
Timing for main: time 2016-02-05_17:55:06 on domain   3:     .17870 elapsed seconds
Timing for main: time 2016-02-05_17:55:20 on domain   3:     .17937 elapsed seconds
Timing for main: time 2016-02-05_17:55:00 on domain   4:     .22313 elapsed seconds
Timing for main: time 2016-02-05_17:55:20 on domain   4:     .21320 elapsed seconds
Timing for main: time 2016-02-05_17:55:20 on domain   2:    1.67113 elapsed seconds
Timing for main: time 2016-02-05_17:55:33 on domain   3:     .18564 elapsed seconds
Timing for main: time 2016-02-05_17:55:46 on domain   3:     .17982 elapsed seconds
Timing for main: time 2016-02-05_17:56:00 on domain   3:     .17913 elapsed seconds
Timing for main: time 2016-02-05_17:55:40 on domain   4:     .21429 elapsed seconds
Timing for main: time 2016-02-05_17:56:00 on domain   4:     .21366 elapsed seconds
Timing for main: time 2016-02-05_17:56:00 on domain   2:    1.66217 elapsed seconds
Timing for main: time 2016-02-05_17:56:00 on domain   1:    5.36216 elapsed seconds
Timing for main: time 2016-02-05_17:56:13 on domain   3:     .18604 elapsed seconds
Timing for main: time 2016-02-05_17:56:26 on domain   3:     .17861 elapsed seconds
Timing for main: time 2016-02-05_17:56:40 on domain   3:     .17898 elapsed seconds
Timing for main: time 2016-02-05_17:56:20 on domain   4:     .21478 elapsed seconds
Timing for main: time 2016-02-05_17:56:40 on domain   4:     .21712 elapsed seconds
Timing for main: time 2016-02-05_17:56:40 on domain   2:    1.66830 elapsed seconds
Timing for main: time 2016-02-05_17:56:53 on domain   3:     .18863 elapsed seconds
Timing for main: time 2016-02-05_17:57:06 on domain   3:     .18166 elapsed seconds
Timing for main: time 2016-02-05_17:57:20 on domain   3:     .17888 elapsed seconds
Timing for main: time 2016-02-05_17:57:00 on domain   4:     .21343 elapsed seconds
Timing for main: time 2016-02-05_17:57:20 on domain   4:     .21368 elapsed seconds
Timing for main: time 2016-02-05_17:57:20 on domain   2:    1.67652 elapsed seconds
Timing for main: time 2016-02-05_17:57:33 on domain   3:     .18565 elapsed seconds
Timing for main: time 2016-02-05_17:57:46 on domain   3:     .18672 elapsed seconds
Timing for main: time 2016-02-05_17:58:00 on domain   3:     .17905 elapsed seconds
Timing for main: time 2016-02-05_17:57:40 on domain   4:     .21369 elapsed seconds
Timing for main: time 2016-02-05_17:58:00 on domain   4:     .21394 elapsed seconds
Timing for main: time 2016-02-05_17:58:00 on domain   2:    1.66799 elapsed seconds
Timing for main: time 2016-02-05_17:58:00 on domain   1:    5.37459 elapsed seconds
  photolysis_driver: called for domain  1
Timing for main: time 2016-02-05_17:58:13 on domain   3:     .18598 elapsed seconds
Timing for main: time 2016-02-05_17:58:26 on domain   3:     .17879 elapsed seconds
Timing for main: time 2016-02-05_17:58:40 on domain   3:     .17905 elapsed seconds
Timing for main: time 2016-02-05_17:58:20 on domain   4:     .21292 elapsed seconds
Timing for main: time 2016-02-05_17:58:40 on domain   4:     .21381 elapsed seconds
Timing for main: time 2016-02-05_17:58:40 on domain   2:    1.66325 elapsed seconds
Timing for main: time 2016-02-05_17:58:53 on domain   3:     .18604 elapsed seconds
Timing for main: time 2016-02-05_17:59:06 on domain   3:     .17964 elapsed seconds
Timing for main: time 2016-02-05_17:59:20 on domain   3:     .17977 elapsed seconds
Timing for main: time 2016-02-05_17:59:00 on domain   4:     .21320 elapsed seconds
Timing for main: time 2016-02-05_17:59:20 on domain   4:     .21346 elapsed seconds
Timing for main: time 2016-02-05_17:59:20 on domain   2:    1.66202 elapsed seconds
  photolysis_driver: called for domain  2
Timing for main: time 2016-02-05_17:59:33 on domain   3:     .19343 elapsed seconds
Timing for main: time 2016-02-05_17:59:46 on domain   3:     .17899 elapsed seconds
  photolysis_driver: called for domain  3
Timing for main: time 2016-02-05_18:00:00 on domain   3:    1.04584 elapsed seconds
Timing for Writing wrfout_d03_2016-02-05_18:00:00 for domain        3:    1.76417 elapsed seconds
Timing for main: time 2016-02-05_17:59:40 on domain   4:     .27184 elapsed seconds
  photolysis_driver: called for domain  4
Timing for main: time 2016-02-05_18:00:00 on domain   4:    1.29535 elapsed seconds
Timing for Writing wrfout_d04_2016-02-05_18:00:00 for domain        4:    1.99478 elapsed seconds
Timing for main: time 2016-02-05_18:00:00 on domain   2:    8.52247 elapsed seconds
Timing for Writing wrfout_d02_2016-02-05_18:00:00 for domain        2:    2.75788 elapsed seconds
Timing for main: time 2016-02-05_18:00:00 on domain   1:   15.57526 elapsed seconds
Timing for Writing wrfout_d01_2016-02-05_18:00:00 for domain        1:    2.43353 elapsed seconds
 d01 2016-02-05_18:00:00 wrf: SUCCESS COMPLETE WRF
