taskid: 0 hostname: p10a51.pbm.ihost.com
  Ntasks in X  12 , ntasks in Y  15
 Setting blank km_opt entries to domain #1 values.
  --> The km_opt entry in the namelist.input is now max_domains.
 Setting blank diff_opt entries to domain #1 values.
  --> The diff_opt entry in the namelist.input is now max_domains.
 --- WARNING: traj_opt is zero, but num_traj is not zero; setting num_traj to zero.
 --- NOTE: hypsometric_opt is 2, setting adjust_heights = F
 --- NOTE: sst_update is 0, setting io_form_auxinput4 = 0 and auxinput4_interval = 0 for all domains
 --- NOTE: sst_update is 0, setting io_form_auxinput4 = 0 and auxinput4_interval = 0 for all domains
 --- NOTE: sst_update is 0, setting io_form_auxinput4 = 0 and auxinput4_interval = 0 for all domains
 --- NOTE: sst_update is 0, setting io_form_auxinput4 = 0 and auxinput4_interval = 0 for all domains
 --- NOTE: grid_fdda is 0 for domain      1, setting gfdda interval and ending time to 0 for that domain.
 --- NOTE: both grid_sfdda and pxlsm_soil_nudge are 0 for domain      1, setting sgfdda interval and ending time to 0 for that domain.
 --- NOTE: obs_nudge_opt is 0 for domain      1, setting obs nudging interval and ending time to 0 for that domain.
 --- NOTE: grid_fdda is 0 for domain      2, setting gfdda interval and ending time to 0 for that domain.
 --- NOTE: both grid_sfdda and pxlsm_soil_nudge are 0 for domain      2, setting sgfdda interval and ending time to 0 for that domain.
 --- NOTE: obs_nudge_opt is 0 for domain      2, setting obs nudging interval and ending time to 0 for that domain.
 --- NOTE: grid_fdda is 0 for domain      3, setting gfdda interval and ending time to 0 for that domain.
 --- NOTE: both grid_sfdda and pxlsm_soil_nudge are 0 for domain      3, setting sgfdda interval and ending time to 0 for that domain.
 --- NOTE: obs_nudge_opt is 0 for domain      3, setting obs nudging interval and ending time to 0 for that domain.
 --- NOTE: grid_fdda is 0 for domain      4, setting gfdda interval and ending time to 0 for that domain.
 --- NOTE: both grid_sfdda and pxlsm_soil_nudge are 0 for domain      4, setting sgfdda interval and ending time to 0 for that domain.
 --- NOTE: obs_nudge_opt is 0 for domain      4, setting obs nudging interval and ending time to 0 for that domain.
 bl_pbl_physics /= 4, implies mfshconv must be 0, resetting
 --- NOTE: num_soil_layers has been set to      4
 WRF V3.6 MODEL
  *************************************
  Parent domain
  ids,ide,jds,jde  1 271 1 181
  ims,ime,jms,jme  -4 30 -4 19
  ips,ipe,jps,jpe  1 23 1 12
  *************************************
 DYNAMICS OPTION: Eulerian Mass Coordinate
    alloc_space_field: domain  1 ,  85786064  bytes allocated
   med_initialdata_input: calling input_input
Timing for processing wrfinput file (stream 0) for domain        1:    3.88083 elapsed seconds
 INPUT LandUse = "USGS"
  LANDUSE TYPE = "USGS" FOUND 33  CATEGORIES 2  SEASONS WATER CATEGORY =  16  SNOW CATEGORY =  24
 INITIALIZE THREE Noah LSM RELATED TABLES
  LANDUSE TYPE = USGS FOUND 27  CATEGORIES
  INPUT SOIL TEXTURE CLASSIFICATION = STAS
  SOIL TEXTURE CLASSIFICATION = STAS FOUND 19  CATEGORIES
 *********************************************************************
 *             PROGRAM:WRF/CHEM V3.6 MODEL
 *                                                                   *
 *    PLEASE REPORT ANY BUGS TO WRF/CHEM HELP at                     *
 *                                                                   *
 *              wrfchemhelp.gsd@noaa.gov                             *
 *                                                                   *
 *********************************************************************
 WARNING: dust option 1 currently works only with the GOCART aerosol option.
 WARNING: sea salt option 1 currently works only with the GOCART aerosol option.
  *************************************
  Nesting domain
  ids,ide,jds,jde  1 361 1 253
  ims,ime,jms,jme  -4 42 -4 27
  ips,ipe,jps,jpe  1 30 1 17
  INTERMEDIATE domain
  ids,ide,jds,jde  74 199 47 136
  ims,ime,jms,jme  69 95 42 64
  ips,ipe,jps,jpe  72 85 45 54
  *************************************
 d01 2016-02-05_12:00:00  alloc_space_field: domain  2 ,  149631324  bytes allocated
 d01 2016-02-05_12:00:00 *** Initializing nest domain # 2 from an input file. ***
 d01 2016-02-05_12:00:00 med_initialdata_input: calling input_input
Timing for processing wrfinput file (stream 0) for domain        2:    7.19715 elapsed seconds
 INPUT LandUse = "USGS"
  LANDUSE TYPE = "USGS" FOUND 33  CATEGORIES 2  SEASONS WATER CATEGORY =  16  SNOW CATEGORY =  24
 INITIALIZE THREE Noah LSM RELATED TABLES
  LANDUSE TYPE = USGS FOUND 27  CATEGORIES
  INPUT SOIL TEXTURE CLASSIFICATION = STAS
  SOIL TEXTURE CLASSIFICATION = STAS FOUND 19  CATEGORIES
 *********************************************************************
 *             PROGRAM:WRF/CHEM V3.6 MODEL
 *                                                                   *
 *    PLEASE REPORT ANY BUGS TO WRF/CHEM HELP at                     *
 *                                                                   *
 *              wrfchemhelp.gsd@noaa.gov                             *
 *                                                                   *
 *********************************************************************
 WARNING: dust option 1 currently works only with the GOCART aerosol option.
 WARNING: sea salt option 1 currently works only with the GOCART aerosol option.
 INPUT LandUse = "USGS"
  LANDUSE TYPE = "USGS" FOUND 33  CATEGORIES 2  SEASONS WATER CATEGORY =  16  SNOW CATEGORY =  24
 INITIALIZE THREE Noah LSM RELATED TABLES
  LANDUSE TYPE = USGS FOUND 27  CATEGORIES
  INPUT SOIL TEXTURE CLASSIFICATION = STAS
  SOIL TEXTURE CLASSIFICATION = STAS FOUND 19  CATEGORIES
 *********************************************************************
 *             PROGRAM:WRF/CHEM V3.6 MODEL
 *                                                                   *
 *    PLEASE REPORT ANY BUGS TO WRF/CHEM HELP at                     *
 *                                                                   *
 *              wrfchemhelp.gsd@noaa.gov                             *
 *                                                                   *
 *********************************************************************
 WARNING: dust option 1 currently works only with the GOCART aerosol option.
 WARNING: sea salt option 1 currently works only with the GOCART aerosol option.
 INPUT LandUse = "USGS"
  LANDUSE TYPE = "USGS" FOUND 33  CATEGORIES 2  SEASONS WATER CATEGORY =  16  SNOW CATEGORY =  24
 INITIALIZE THREE Noah LSM RELATED TABLES
  LANDUSE TYPE = USGS FOUND 27  CATEGORIES
  INPUT SOIL TEXTURE CLASSIFICATION = STAS
  SOIL TEXTURE CLASSIFICATION = STAS FOUND 19  CATEGORIES
 *********************************************************************
 *             PROGRAM:WRF/CHEM V3.6 MODEL
 *                                                                   *
 *    PLEASE REPORT ANY BUGS TO WRF/CHEM HELP at                     *
 *                                                                   *
 *              wrfchemhelp.gsd@noaa.gov                             *
 *                                                                   *
 *********************************************************************
 WARNING: dust option 1 currently works only with the GOCART aerosol option.
 WARNING: sea salt option 1 currently works only with the GOCART aerosol option.
Timing for Writing wrfout_d01_2016-02-05_12:00:00 for domain        1:    1.49285 elapsed seconds
  mediation_integrate: med_read_wrf_chem_emissions: Open file wrfchemi_12z_d01
  HOURLY EMISSIONS UPDATE TIME         .0        .0
 mediation_integrate: med_read_wrf_chem_emissions: Read emissions for time 2016-02-05_12:00:00
 **WARNING** Time in input file not being checked **WARNING**
Timing for processing lateral boundary for domain        1:    3.59715 elapsed seconds
  Tile Strategy is not specified. Assuming 1D-Y
 WRF TILE   1 IS      1 IE     23 JS      1 JE     12
 WRF NUMBER OF TILES =   1
  photolysis_driver: called for domain  1
  *************************************
  Nesting domain
  ids,ide,jds,jde  1 307 1 241
  ims,ime,jms,jme  -4 36 -4 27
  ips,ipe,jps,jpe  1 26 1 16
  INTERMEDIATE domain
  ids,ide,jds,jde  124 231 35 120
  ims,ime,jms,jme  119 144 30 51
  ips,ipe,jps,jpe  122 134 33 41
  *************************************
 d02 2016-02-05_12:00:00  alloc_space_field: domain  3 ,  131137840  bytes allocated
 d02 2016-02-05_12:00:00  alloc_space_field: domain  3 ,  7204912  bytes allocated
 d02 2016-02-05_12:00:00 *** Initializing nest domain # 3 from an input file. ***
 d02 2016-02-05_12:00:00 med_initialdata_input: calling input_input
Timing for processing wrfinput file (stream 0) for domain        3:    6.27708 elapsed seconds
 INPUT LandUse = "USGS"
  LANDUSE TYPE = "USGS" FOUND 33  CATEGORIES 2  SEASONS WATER CATEGORY =  16  SNOW CATEGORY =  24
 INITIALIZE THREE Noah LSM RELATED TABLES
  LANDUSE TYPE = USGS FOUND 27  CATEGORIES
  INPUT SOIL TEXTURE CLASSIFICATION = STAS
  SOIL TEXTURE CLASSIFICATION = STAS FOUND 19  CATEGORIES
 *********************************************************************
 *             PROGRAM:WRF/CHEM V3.6 MODEL
 *                                                                   *
 *    PLEASE REPORT ANY BUGS TO WRF/CHEM HELP at                     *
 *                                                                   *
 *              wrfchemhelp.gsd@noaa.gov                             *
 *                                                                   *
 *********************************************************************
 WARNING: dust option 1 currently works only with the GOCART aerosol option.
 WARNING: sea salt option 1 currently works only with the GOCART aerosol option.
 INPUT LandUse = "USGS"
  LANDUSE TYPE = "USGS" FOUND 33  CATEGORIES 2  SEASONS WATER CATEGORY =  16  SNOW CATEGORY =  24
 INITIALIZE THREE Noah LSM RELATED TABLES
  LANDUSE TYPE = USGS FOUND 27  CATEGORIES
  INPUT SOIL TEXTURE CLASSIFICATION = STAS
  SOIL TEXTURE CLASSIFICATION = STAS FOUND 19  CATEGORIES
 *********************************************************************
 *             PROGRAM:WRF/CHEM V3.6 MODEL
 *                                                                   *
 *    PLEASE REPORT ANY BUGS TO WRF/CHEM HELP at                     *
 *                                                                   *
 *              wrfchemhelp.gsd@noaa.gov                             *
 *                                                                   *
 *********************************************************************
 WARNING: dust option 1 currently works only with the GOCART aerosol option.
 WARNING: sea salt option 1 currently works only with the GOCART aerosol option.
 INPUT LandUse = "USGS"
  LANDUSE TYPE = "USGS" FOUND 33  CATEGORIES 2  SEASONS WATER CATEGORY =  16  SNOW CATEGORY =  24
 INITIALIZE THREE Noah LSM RELATED TABLES
  LANDUSE TYPE = USGS FOUND 27  CATEGORIES
  INPUT SOIL TEXTURE CLASSIFICATION = STAS
  SOIL TEXTURE CLASSIFICATION = STAS FOUND 19  CATEGORIES
 *********************************************************************
 *             PROGRAM:WRF/CHEM V3.6 MODEL
 *                                                                   *
 *    PLEASE REPORT ANY BUGS TO WRF/CHEM HELP at                     *
 *                                                                   *
 *              wrfchemhelp.gsd@noaa.gov                             *
 *                                                                   *
 *********************************************************************
 WARNING: dust option 1 currently works only with the GOCART aerosol option.
 WARNING: sea salt option 1 currently works only with the GOCART aerosol option.
  *************************************
  Nesting domain
  ids,ide,jds,jde  1 217 1 388
  ims,ime,jms,jme  -4 30 -4 36
  ips,ipe,jps,jpe  1 18 1 26
  INTERMEDIATE domain
  ids,ide,jds,jde  225 302 83 217
  ims,ime,jms,jme  220 242 78 103
  ips,ipe,jps,jpe  223 232 81 93
  *************************************
 d02 2016-02-05_12:00:00  alloc_space_field: domain  4 ,  142857636  bytes allocated
 d02 2016-02-05_12:00:00  alloc_space_field: domain  4 ,  7532408  bytes allocated
 d02 2016-02-05_12:00:00 *** Initializing nest domain # 4 from an input file. ***
 d02 2016-02-05_12:00:00 med_initialdata_input: calling input_input
Timing for processing wrfinput file (stream 0) for domain        4:    8.93115 elapsed seconds
 INPUT LandUse = "USGS"
  LANDUSE TYPE = "USGS" FOUND 33  CATEGORIES 2  SEASONS WATER CATEGORY =  16  SNOW CATEGORY =  24
 INITIALIZE THREE Noah LSM RELATED TABLES
  LANDUSE TYPE = USGS FOUND 27  CATEGORIES
  INPUT SOIL TEXTURE CLASSIFICATION = STAS
  SOIL TEXTURE CLASSIFICATION = STAS FOUND 19  CATEGORIES
 *********************************************************************
 *             PROGRAM:WRF/CHEM V3.6 MODEL
 *                                                                   *
 *    PLEASE REPORT ANY BUGS TO WRF/CHEM HELP at                     *
 *                                                                   *
 *              wrfchemhelp.gsd@noaa.gov                             *
 *                                                                   *
 *********************************************************************
 WARNING: dust option 1 currently works only with the GOCART aerosol option.
 WARNING: sea salt option 1 currently works only with the GOCART aerosol option.
 INPUT LandUse = "USGS"
  LANDUSE TYPE = "USGS" FOUND 33  CATEGORIES 2  SEASONS WATER CATEGORY =  16  SNOW CATEGORY =  24
 INITIALIZE THREE Noah LSM RELATED TABLES
  LANDUSE TYPE = USGS FOUND 27  CATEGORIES
  INPUT SOIL TEXTURE CLASSIFICATION = STAS
  SOIL TEXTURE CLASSIFICATION = STAS FOUND 19  CATEGORIES
 *********************************************************************
 *             PROGRAM:WRF/CHEM V3.6 MODEL
 *                                                                   *
 *    PLEASE REPORT ANY BUGS TO WRF/CHEM HELP at                     *
 *                                                                   *
 *              wrfchemhelp.gsd@noaa.gov                             *
 *                                                                   *
 *********************************************************************
 WARNING: dust option 1 currently works only with the GOCART aerosol option.
 WARNING: sea salt option 1 currently works only with the GOCART aerosol option.
 INPUT LandUse = "USGS"
  LANDUSE TYPE = "USGS" FOUND 33  CATEGORIES 2  SEASONS WATER CATEGORY =  16  SNOW CATEGORY =  24
 INITIALIZE THREE Noah LSM RELATED TABLES
  LANDUSE TYPE = USGS FOUND 27  CATEGORIES
  INPUT SOIL TEXTURE CLASSIFICATION = STAS
  SOIL TEXTURE CLASSIFICATION = STAS FOUND 19  CATEGORIES
 *********************************************************************
 *             PROGRAM:WRF/CHEM V3.6 MODEL
 *                                                                   *
 *    PLEASE REPORT ANY BUGS TO WRF/CHEM HELP at                     *
 *                                                                   *
 *              wrfchemhelp.gsd@noaa.gov                             *
 *                                                                   *
 *********************************************************************
 WARNING: dust option 1 currently works only with the GOCART aerosol option.
 WARNING: sea salt option 1 currently works only with the GOCART aerosol option.
Timing for Writing wrfout_d02_2016-02-05_12:00:00 for domain        2:    2.10107 elapsed seconds
  mediation_integrate: med_read_wrf_chem_emissions: Open file wrfchemi_12z_d02
  HOURLY EMISSIONS UPDATE TIME         .0        .0
 mediation_integrate: med_read_wrf_chem_emissions: Read emissions for time 2016-02-05_12:00:00
 **WARNING** Time in input file not being checked **WARNING**
  Tile Strategy is not specified. Assuming 1D-Y
 WRF TILE   1 IS      1 IE     30 JS      1 JE     17
 WRF NUMBER OF TILES =   1
  photolysis_driver: called for domain  2
Timing for Writing wrfout_d03_2016-02-05_12:00:00 for domain        3:    1.98855 elapsed seconds
  mediation_integrate: med_read_wrf_chem_emissions: Open file wrfchemi_12z_d03
  HOURLY EMISSIONS UPDATE TIME         .0        .0
 mediation_integrate: med_read_wrf_chem_emissions: Read emissions for time 2016-02-05_12:00:00
 **WARNING** Time in input file not being checked **WARNING**
  Tile Strategy is not specified. Assuming 1D-Y
 WRF TILE   1 IS      1 IE     26 JS      1 JE     16
 WRF NUMBER OF TILES =   1
  photolysis_driver: called for domain  3
Timing for main: time 2016-02-05_12:00:13 on domain   3:    5.09514 elapsed seconds
Timing for main: time 2016-02-05_12:00:26 on domain   3:     .18459 elapsed seconds
Timing for main: time 2016-02-05_12:00:40 on domain   3:     .17224 elapsed seconds
Timing for Writing wrfout_d04_2016-02-05_12:00:00 for domain        4:    2.05996 elapsed seconds
  mediation_integrate: med_read_wrf_chem_emissions: Open file wrfchemi_12z_d04
  HOURLY EMISSIONS UPDATE TIME         .0        .0
 mediation_integrate: med_read_wrf_chem_emissions: Read emissions for time 2016-02-05_12:00:00
 **WARNING** Time in input file not being checked **WARNING**
  Tile Strategy is not specified. Assuming 1D-Y
 WRF TILE   1 IS      1 IE     18 JS      1 JE     26
 WRF NUMBER OF TILES =   1
  photolysis_driver: called for domain  4
Timing for main: time 2016-02-05_12:00:20 on domain   4:    5.07417 elapsed seconds
Timing for main: time 2016-02-05_12:00:40 on domain   4:     .16598 elapsed seconds
Timing for main: time 2016-02-05_12:00:40 on domain   2:   34.08805 elapsed seconds
Timing for main: time 2016-02-05_12:00:53 on domain   3:     .17140 elapsed seconds
Timing for main: time 2016-02-05_12:01:06 on domain   3:     .16291 elapsed seconds
Timing for main: time 2016-02-05_12:01:20 on domain   3:     .16344 elapsed seconds
Timing for main: time 2016-02-05_12:01:00 on domain   4:     .20316 elapsed seconds
Timing for main: time 2016-02-05_12:01:20 on domain   4:     .19587 elapsed seconds
Timing for main: time 2016-02-05_12:01:20 on domain   2:    1.56121 elapsed seconds
Timing for main: time 2016-02-05_12:01:33 on domain   3:     .17768 elapsed seconds
Timing for main: time 2016-02-05_12:01:46 on domain   3:     .16674 elapsed seconds
Timing for main: time 2016-02-05_12:02:00 on domain   3:     .16531 elapsed seconds
Timing for main: time 2016-02-05_12:01:40 on domain   4:     .20814 elapsed seconds
Timing for main: time 2016-02-05_12:02:00 on domain   4:     .21091 elapsed seconds
Timing for main: time 2016-02-05_12:02:00 on domain   2:    1.63302 elapsed seconds
Timing for main: time 2016-02-05_12:02:00 on domain   1:   54.30849 elapsed seconds
Timing for main: time 2016-02-05_12:02:13 on domain   3:     .18070 elapsed seconds
Timing for main: time 2016-02-05_12:02:26 on domain   3:     .17145 elapsed seconds
Timing for main: time 2016-02-05_12:02:40 on domain   3:     .17109 elapsed seconds
Timing for main: time 2016-02-05_12:02:20 on domain   4:     .20178 elapsed seconds
Timing for main: time 2016-02-05_12:02:40 on domain   4:     .20279 elapsed seconds
Timing for main: time 2016-02-05_12:02:40 on domain   2:    1.64760 elapsed seconds
Timing for main: time 2016-02-05_12:02:53 on domain   3:     .17543 elapsed seconds
Timing for main: time 2016-02-05_12:03:06 on domain   3:     .17064 elapsed seconds
Timing for main: time 2016-02-05_12:03:20 on domain   3:     .17345 elapsed seconds
Timing for main: time 2016-02-05_12:03:00 on domain   4:     .19819 elapsed seconds
Timing for main: time 2016-02-05_12:03:20 on domain   4:     .19560 elapsed seconds
Timing for main: time 2016-02-05_12:03:20 on domain   2:    1.61887 elapsed seconds
Timing for main: time 2016-02-05_12:03:33 on domain   3:     .17119 elapsed seconds
Timing for main: time 2016-02-05_12:03:46 on domain   3:     .16272 elapsed seconds
Timing for main: time 2016-02-05_12:04:00 on domain   3:     .16292 elapsed seconds
Timing for main: time 2016-02-05_12:03:40 on domain   4:     .20218 elapsed seconds
Timing for main: time 2016-02-05_12:04:00 on domain   4:     .19582 elapsed seconds
Timing for main: time 2016-02-05_12:04:00 on domain   2:    1.59540 elapsed seconds
Timing for main: time 2016-02-05_12:04:00 on domain   1:    5.18306 elapsed seconds
Timing for main: time 2016-02-05_12:04:13 on domain   3:     .17151 elapsed seconds
Timing for main: time 2016-02-05_12:04:26 on domain   3:     .16291 elapsed seconds
Timing for main: time 2016-02-05_12:04:40 on domain   3:     .16620 elapsed seconds
Timing for main: time 2016-02-05_12:04:20 on domain   4:     .21884 elapsed seconds
Timing for main: time 2016-02-05_12:04:40 on domain   4:     .27698 elapsed seconds
Timing for main: time 2016-02-05_12:04:40 on domain   2:    1.71476 elapsed seconds
Timing for main: time 2016-02-05_12:04:53 on domain   3:     .17118 elapsed seconds
Timing for main: time 2016-02-05_12:05:06 on domain   3:     .17041 elapsed seconds
Timing for main: time 2016-02-05_12:05:20 on domain   3:     .16330 elapsed seconds
Timing for main: time 2016-02-05_12:05:00 on domain   4:     .21111 elapsed seconds
Timing for main: time 2016-02-05_12:05:20 on domain   4:     .20120 elapsed seconds
Timing for main: time 2016-02-05_12:05:20 on domain   2:    1.62642 elapsed seconds
Timing for main: time 2016-02-05_12:05:33 on domain   3:     .17115 elapsed seconds
Timing for main: time 2016-02-05_12:05:46 on domain   3:     .16469 elapsed seconds
Timing for main: time 2016-02-05_12:06:00 on domain   3:     .16262 elapsed seconds
Timing for main: time 2016-02-05_12:05:40 on domain   4:     .20407 elapsed seconds
Timing for main: time 2016-02-05_12:06:00 on domain   4:     .19590 elapsed seconds
Timing for main: time 2016-02-05_12:06:00 on domain   2:    1.59886 elapsed seconds
Timing for main: time 2016-02-05_12:06:00 on domain   1:    5.27646 elapsed seconds
Timing for main: time 2016-02-05_12:06:13 on domain   3:     .17181 elapsed seconds
Timing for main: time 2016-02-05_12:06:26 on domain   3:     .16348 elapsed seconds
Timing for main: time 2016-02-05_12:06:40 on domain   3:     .16293 elapsed seconds
Timing for main: time 2016-02-05_12:06:20 on domain   4:     .20305 elapsed seconds
Timing for main: time 2016-02-05_12:06:40 on domain   4:     .19614 elapsed seconds
Timing for main: time 2016-02-05_12:06:40 on domain   2:    1.61284 elapsed seconds
Timing for main: time 2016-02-05_12:06:53 on domain   3:     .17195 elapsed seconds
Timing for main: time 2016-02-05_12:07:06 on domain   3:     .16314 elapsed seconds
Timing for main: time 2016-02-05_12:07:20 on domain   3:     .16217 elapsed seconds
Timing for main: time 2016-02-05_12:07:00 on domain   4:     .20248 elapsed seconds
Timing for main: time 2016-02-05_12:07:20 on domain   4:     .19774 elapsed seconds
Timing for main: time 2016-02-05_12:07:20 on domain   2:    1.59758 elapsed seconds
Timing for main: time 2016-02-05_12:07:33 on domain   3:     .17636 elapsed seconds
Timing for main: time 2016-02-05_12:07:46 on domain   3:     .16289 elapsed seconds
Timing for main: time 2016-02-05_12:08:00 on domain   3:     .16276 elapsed seconds
Timing for main: time 2016-02-05_12:07:40 on domain   4:     .20214 elapsed seconds
Timing for main: time 2016-02-05_12:08:00 on domain   4:     .19757 elapsed seconds
Timing for main: time 2016-02-05_12:08:00 on domain   2:    1.60140 elapsed seconds
Timing for main: time 2016-02-05_12:08:00 on domain   1:    5.13930 elapsed seconds
Timing for main: time 2016-02-05_12:08:13 on domain   3:     .17141 elapsed seconds
Timing for main: time 2016-02-05_12:08:26 on domain   3:     .16398 elapsed seconds
Timing for main: time 2016-02-05_12:08:40 on domain   3:     .16290 elapsed seconds
Timing for main: time 2016-02-05_12:08:20 on domain   4:     .20216 elapsed seconds
Timing for main: time 2016-02-05_12:08:40 on domain   4:     .19661 elapsed seconds
Timing for main: time 2016-02-05_12:08:40 on domain   2:    1.61686 elapsed seconds
Timing for main: time 2016-02-05_12:08:53 on domain   3:     .17151 elapsed seconds
Timing for main: time 2016-02-05_12:09:06 on domain   3:     .16457 elapsed seconds
Timing for main: time 2016-02-05_12:09:20 on domain   3:     .16350 elapsed seconds
Timing for main: time 2016-02-05_12:09:00 on domain   4:     .20254 elapsed seconds
Timing for main: time 2016-02-05_12:09:20 on domain   4:     .22741 elapsed seconds
Timing for main: time 2016-02-05_12:09:20 on domain   2:    1.62993 elapsed seconds
Timing for main: time 2016-02-05_12:09:33 on domain   3:     .19167 elapsed seconds
Timing for main: time 2016-02-05_12:09:46 on domain   3:     .16317 elapsed seconds
Timing for main: time 2016-02-05_12:10:00 on domain   3:     .16265 elapsed seconds
Timing for main: time 2016-02-05_12:09:40 on domain   4:     .21845 elapsed seconds
Timing for main: time 2016-02-05_12:10:00 on domain   4:     .20435 elapsed seconds
Timing for main: time 2016-02-05_12:10:00 on domain   2:    1.64078 elapsed seconds
Timing for main: time 2016-02-05_12:10:00 on domain   1:    5.21514 elapsed seconds
Timing for main: time 2016-02-05_12:10:13 on domain   3:     .18606 elapsed seconds
Timing for main: time 2016-02-05_12:10:26 on domain   3:     .16252 elapsed seconds
Timing for main: time 2016-02-05_12:10:40 on domain   3:     .16308 elapsed seconds
Timing for main: time 2016-02-05_12:10:20 on domain   4:     .20271 elapsed seconds
Timing for main: time 2016-02-05_12:10:40 on domain   4:     .19598 elapsed seconds
Timing for main: time 2016-02-05_12:10:40 on domain   2:    1.63440 elapsed seconds
Timing for main: time 2016-02-05_12:10:53 on domain   3:     .17803 elapsed seconds
Timing for main: time 2016-02-05_12:11:06 on domain   3:     .16265 elapsed seconds
Timing for main: time 2016-02-05_12:11:20 on domain   3:     .16276 elapsed seconds
Timing for main: time 2016-02-05_12:11:00 on domain   4:     .20254 elapsed seconds
Timing for main: time 2016-02-05_12:11:20 on domain   4:     .19601 elapsed seconds
Timing for main: time 2016-02-05_12:11:20 on domain   2:    1.60162 elapsed seconds
Timing for main: time 2016-02-05_12:11:33 on domain   3:     .17166 elapsed seconds
Timing for main: time 2016-02-05_12:11:46 on domain   3:     .16312 elapsed seconds
Timing for main: time 2016-02-05_12:12:00 on domain   3:     .16316 elapsed seconds
Timing for main: time 2016-02-05_12:11:40 on domain   4:     .20210 elapsed seconds
Timing for main: time 2016-02-05_12:12:00 on domain   4:     .19603 elapsed seconds
Timing for main: time 2016-02-05_12:12:00 on domain   2:    1.59706 elapsed seconds
Timing for main: time 2016-02-05_12:12:00 on domain   1:    5.16989 elapsed seconds
Timing for main: time 2016-02-05_12:12:13 on domain   3:     .17159 elapsed seconds
Timing for main: time 2016-02-05_12:12:26 on domain   3:     .16299 elapsed seconds
Timing for main: time 2016-02-05_12:12:40 on domain   3:     .16293 elapsed seconds
Timing for main: time 2016-02-05_12:12:20 on domain   4:     .20056 elapsed seconds
Timing for main: time 2016-02-05_12:12:40 on domain   4:     .19635 elapsed seconds
Timing for main: time 2016-02-05_12:12:40 on domain   2:    1.61427 elapsed seconds
Timing for main: time 2016-02-05_12:12:53 on domain   3:     .17140 elapsed seconds
Timing for main: time 2016-02-05_12:13:06 on domain   3:     .16304 elapsed seconds
Timing for main: time 2016-02-05_12:13:20 on domain   3:     .16370 elapsed seconds
Timing for main: time 2016-02-05_12:13:00 on domain   4:     .20275 elapsed seconds
Timing for main: time 2016-02-05_12:13:20 on domain   4:     .19776 elapsed seconds
Timing for main: time 2016-02-05_12:13:20 on domain   2:    1.60100 elapsed seconds
Timing for main: time 2016-02-05_12:13:33 on domain   3:     .17172 elapsed seconds
Timing for main: time 2016-02-05_12:13:46 on domain   3:     .16682 elapsed seconds
Timing for main: time 2016-02-05_12:14:00 on domain   3:     .16329 elapsed seconds
Timing for main: time 2016-02-05_12:13:40 on domain   4:     .20578 elapsed seconds
Timing for main: time 2016-02-05_12:14:00 on domain   4:     .19688 elapsed seconds
Timing for main: time 2016-02-05_12:14:00 on domain   2:    1.60513 elapsed seconds
Timing for main: time 2016-02-05_12:14:00 on domain   1:    5.14765 elapsed seconds
Timing for main: time 2016-02-05_12:14:13 on domain   3:     .17203 elapsed seconds
Timing for main: time 2016-02-05_12:14:26 on domain   3:     .16257 elapsed seconds
Timing for main: time 2016-02-05_12:14:40 on domain   3:     .16295 elapsed seconds
Timing for main: time 2016-02-05_12:14:20 on domain   4:     .20291 elapsed seconds
Timing for main: time 2016-02-05_12:14:40 on domain   4:     .19640 elapsed seconds
Timing for main: time 2016-02-05_12:14:40 on domain   2:    1.61775 elapsed seconds
Timing for main: time 2016-02-05_12:14:53 on domain   3:     .17159 elapsed seconds
Timing for main: time 2016-02-05_12:15:06 on domain   3:     .16348 elapsed seconds
Timing for main: time 2016-02-05_12:15:20 on domain   3:     .17079 elapsed seconds
Timing for main: time 2016-02-05_12:15:00 on domain   4:     .21152 elapsed seconds
Timing for main: time 2016-02-05_12:15:20 on domain   4:     .19571 elapsed seconds
Timing for main: time 2016-02-05_12:15:20 on domain   2:    1.61390 elapsed seconds
Timing for main: time 2016-02-05_12:15:33 on domain   3:     .17177 elapsed seconds
Timing for main: time 2016-02-05_12:15:46 on domain   3:     .16211 elapsed seconds
Timing for main: time 2016-02-05_12:16:00 on domain   3:     .16325 elapsed seconds
Timing for main: time 2016-02-05_12:15:40 on domain   4:     .20465 elapsed seconds
Timing for main: time 2016-02-05_12:16:00 on domain   4:     .19593 elapsed seconds
Timing for main: time 2016-02-05_12:16:00 on domain   2:    1.60818 elapsed seconds
Timing for main: time 2016-02-05_12:16:00 on domain   1:    5.16682 elapsed seconds
Timing for main: time 2016-02-05_12:16:13 on domain   3:     .17150 elapsed seconds
Timing for main: time 2016-02-05_12:16:26 on domain   3:     .16508 elapsed seconds
Timing for main: time 2016-02-05_12:16:40 on domain   3:     .16045 elapsed seconds
Timing for main: time 2016-02-05_12:16:20 on domain   4:     .20308 elapsed seconds
Timing for main: time 2016-02-05_12:16:40 on domain   4:     .19560 elapsed seconds
Timing for main: time 2016-02-05_12:16:40 on domain   2:    1.61102 elapsed seconds
Timing for main: time 2016-02-05_12:16:53 on domain   3:     .17672 elapsed seconds
Timing for main: time 2016-02-05_12:17:06 on domain   3:     .16338 elapsed seconds
Timing for main: time 2016-02-05_12:17:20 on domain   3:     .16429 elapsed seconds
Timing for main: time 2016-02-05_12:17:00 on domain   4:     .20364 elapsed seconds
Timing for main: time 2016-02-05_12:17:20 on domain   4:     .19586 elapsed seconds
Timing for main: time 2016-02-05_12:17:20 on domain   2:    1.60436 elapsed seconds
Timing for main: time 2016-02-05_12:17:33 on domain   3:     .17125 elapsed seconds
Timing for main: time 2016-02-05_12:17:46 on domain   3:     .16297 elapsed seconds
Timing for main: time 2016-02-05_12:18:00 on domain   3:     .16286 elapsed seconds
Timing for main: time 2016-02-05_12:17:40 on domain   4:     .20348 elapsed seconds
Timing for main: time 2016-02-05_12:18:00 on domain   4:     .19674 elapsed seconds
Timing for main: time 2016-02-05_12:18:00 on domain   2:    1.59785 elapsed seconds
Timing for main: time 2016-02-05_12:18:00 on domain   1:    5.15043 elapsed seconds
Timing for main: time 2016-02-05_12:18:13 on domain   3:     .17172 elapsed seconds
Timing for main: time 2016-02-05_12:18:26 on domain   3:     .16294 elapsed seconds
Timing for main: time 2016-02-05_12:18:40 on domain   3:     .16315 elapsed seconds
Timing for main: time 2016-02-05_12:18:20 on domain   4:     .20298 elapsed seconds
Timing for main: time 2016-02-05_12:18:40 on domain   4:     .19571 elapsed seconds
Timing for main: time 2016-02-05_12:18:40 on domain   2:    1.61253 elapsed seconds
Timing for main: time 2016-02-05_12:18:53 on domain   3:     .17255 elapsed seconds
Timing for main: time 2016-02-05_12:19:06 on domain   3:     .16380 elapsed seconds
Timing for main: time 2016-02-05_12:19:20 on domain   3:     .16323 elapsed seconds
Timing for main: time 2016-02-05_12:19:00 on domain   4:     .20324 elapsed seconds
Timing for main: time 2016-02-05_12:19:20 on domain   4:     .19637 elapsed seconds
Timing for main: time 2016-02-05_12:19:20 on domain   2:    1.59919 elapsed seconds
Timing for main: time 2016-02-05_12:19:33 on domain   3:     .17166 elapsed seconds
Timing for main: time 2016-02-05_12:19:46 on domain   3:     .16396 elapsed seconds
Timing for main: time 2016-02-05_12:20:00 on domain   3:     .16404 elapsed seconds
Timing for main: time 2016-02-05_12:19:40 on domain   4:     .20638 elapsed seconds
Timing for main: time 2016-02-05_12:20:00 on domain   4:     .20730 elapsed seconds
Timing for main: time 2016-02-05_12:20:00 on domain   2:    1.61425 elapsed seconds
Timing for main: time 2016-02-05_12:20:00 on domain   1:    5.15254 elapsed seconds
Timing for main: time 2016-02-05_12:20:13 on domain   3:     .17182 elapsed seconds
Timing for main: time 2016-02-05_12:20:26 on domain   3:     .17025 elapsed seconds
Timing for main: time 2016-02-05_12:20:40 on domain   3:     .16344 elapsed seconds
Timing for main: time 2016-02-05_12:20:20 on domain   4:     .20313 elapsed seconds
Timing for main: time 2016-02-05_12:20:40 on domain   4:     .19559 elapsed seconds
Timing for main: time 2016-02-05_12:20:40 on domain   2:    1.61977 elapsed seconds
Timing for main: time 2016-02-05_12:20:53 on domain   3:     .17136 elapsed seconds
Timing for main: time 2016-02-05_12:21:06 on domain   3:     .17092 elapsed seconds
Timing for main: time 2016-02-05_12:21:20 on domain   3:     .16270 elapsed seconds
Timing for main: time 2016-02-05_12:21:00 on domain   4:     .20293 elapsed seconds
Timing for main: time 2016-02-05_12:21:20 on domain   4:     .19542 elapsed seconds
Timing for main: time 2016-02-05_12:21:20 on domain   2:    1.61264 elapsed seconds
Timing for main: time 2016-02-05_12:21:33 on domain   3:     .17122 elapsed seconds
Timing for main: time 2016-02-05_12:21:46 on domain   3:     .16268 elapsed seconds
Timing for main: time 2016-02-05_12:22:00 on domain   3:     .16331 elapsed seconds
Timing for main: time 2016-02-05_12:21:40 on domain   4:     .20359 elapsed seconds
Timing for main: time 2016-02-05_12:22:00 on domain   4:     .20160 elapsed seconds
Timing for main: time 2016-02-05_12:22:00 on domain   2:    1.60438 elapsed seconds
Timing for main: time 2016-02-05_12:22:00 on domain   1:    5.16537 elapsed seconds
Timing for main: time 2016-02-05_12:22:13 on domain   3:     .17194 elapsed seconds
Timing for main: time 2016-02-05_12:22:26 on domain   3:     .16225 elapsed seconds
Timing for main: time 2016-02-05_12:22:40 on domain   3:     .16308 elapsed seconds
Timing for main: time 2016-02-05_12:22:20 on domain   4:     .21362 elapsed seconds
Timing for main: time 2016-02-05_12:22:40 on domain   4:     .29107 elapsed seconds
Timing for main: time 2016-02-05_12:22:40 on domain   2:    1.71735 elapsed seconds
Timing for main: time 2016-02-05_12:22:53 on domain   3:     .17157 elapsed seconds
Timing for main: time 2016-02-05_12:23:06 on domain   3:     .16286 elapsed seconds
Timing for main: time 2016-02-05_12:23:20 on domain   3:     .16290 elapsed seconds
Timing for main: time 2016-02-05_12:23:00 on domain   4:     .20289 elapsed seconds
Timing for main: time 2016-02-05_12:23:20 on domain   4:     .19690 elapsed seconds
Timing for main: time 2016-02-05_12:23:20 on domain   2:    1.65987 elapsed seconds
Timing for main: time 2016-02-05_12:23:33 on domain   3:     .17153 elapsed seconds
Timing for main: time 2016-02-05_12:23:46 on domain   3:     .16301 elapsed seconds
Timing for main: time 2016-02-05_12:24:00 on domain   3:     .16488 elapsed seconds
Timing for main: time 2016-02-05_12:23:40 on domain   4:     .20360 elapsed seconds
Timing for main: time 2016-02-05_12:24:00 on domain   4:     .19661 elapsed seconds
Timing for main: time 2016-02-05_12:24:00 on domain   2:    1.69144 elapsed seconds
Timing for main: time 2016-02-05_12:24:00 on domain   1:    5.40332 elapsed seconds
Timing for main: time 2016-02-05_12:24:13 on domain   3:     .17155 elapsed seconds
Timing for main: time 2016-02-05_12:24:26 on domain   3:     .16272 elapsed seconds
Timing for main: time 2016-02-05_12:24:40 on domain   3:     .16315 elapsed seconds
Timing for main: time 2016-02-05_12:24:20 on domain   4:     .20369 elapsed seconds
Timing for main: time 2016-02-05_12:24:40 on domain   4:     .19561 elapsed seconds
Timing for main: time 2016-02-05_12:24:40 on domain   2:    1.60836 elapsed seconds
Timing for main: time 2016-02-05_12:24:53 on domain   3:     .17139 elapsed seconds
Timing for main: time 2016-02-05_12:25:06 on domain   3:     .16295 elapsed seconds
Timing for main: time 2016-02-05_12:25:20 on domain   3:     .16298 elapsed seconds
Timing for main: time 2016-02-05_12:25:00 on domain   4:     .21155 elapsed seconds
Timing for main: time 2016-02-05_12:25:20 on domain   4:     .19546 elapsed seconds
Timing for main: time 2016-02-05_12:25:20 on domain   2:    1.60532 elapsed seconds
Timing for main: time 2016-02-05_12:25:33 on domain   3:     .17881 elapsed seconds
Timing for main: time 2016-02-05_12:25:46 on domain   3:     .16266 elapsed seconds
Timing for main: time 2016-02-05_12:26:00 on domain   3:     .17095 elapsed seconds
Timing for main: time 2016-02-05_12:25:40 on domain   4:     .20316 elapsed seconds
Timing for main: time 2016-02-05_12:26:00 on domain   4:     .19550 elapsed seconds
Timing for main: time 2016-02-05_12:26:00 on domain   2:    1.61189 elapsed seconds
Timing for main: time 2016-02-05_12:26:00 on domain   1:    5.15516 elapsed seconds
Timing for main: time 2016-02-05_12:26:13 on domain   3:     .17596 elapsed seconds
Timing for main: time 2016-02-05_12:26:26 on domain   3:     .15845 elapsed seconds
Timing for main: time 2016-02-05_12:26:40 on domain   3:     .16345 elapsed seconds
Timing for main: time 2016-02-05_12:26:20 on domain   4:     .20397 elapsed seconds
Timing for main: time 2016-02-05_12:26:40 on domain   4:     .19602 elapsed seconds
Timing for main: time 2016-02-05_12:26:40 on domain   2:    1.62146 elapsed seconds
Timing for main: time 2016-02-05_12:26:53 on domain   3:     .17142 elapsed seconds
Timing for main: time 2016-02-05_12:27:06 on domain   3:     .16307 elapsed seconds
Timing for main: time 2016-02-05_12:27:20 on domain   3:     .16347 elapsed seconds
Timing for main: time 2016-02-05_12:27:00 on domain   4:     .20313 elapsed seconds
Timing for main: time 2016-02-05_12:27:20 on domain   4:     .19853 elapsed seconds
Timing for main: time 2016-02-05_12:27:20 on domain   2:    1.59895 elapsed seconds
Timing for main: time 2016-02-05_12:27:33 on domain   3:     .17192 elapsed seconds
Timing for main: time 2016-02-05_12:27:46 on domain   3:     .16322 elapsed seconds
Timing for main: time 2016-02-05_12:28:00 on domain   3:     .16310 elapsed seconds
Timing for main: time 2016-02-05_12:27:40 on domain   4:     .20296 elapsed seconds
Timing for main: time 2016-02-05_12:28:00 on domain   4:     .19582 elapsed seconds
Timing for main: time 2016-02-05_12:28:00 on domain   2:    1.59831 elapsed seconds
Timing for main: time 2016-02-05_12:28:00 on domain   1:    5.15334 elapsed seconds
  photolysis_driver: called for domain  1
Timing for main: time 2016-02-05_12:28:13 on domain   3:     .17185 elapsed seconds
Timing for main: time 2016-02-05_12:28:26 on domain   3:     .16343 elapsed seconds
Timing for main: time 2016-02-05_12:28:40 on domain   3:     .16426 elapsed seconds
Timing for main: time 2016-02-05_12:28:20 on domain   4:     .20297 elapsed seconds
Timing for main: time 2016-02-05_12:28:40 on domain   4:     .19563 elapsed seconds
Timing for main: time 2016-02-05_12:28:40 on domain   2:    1.61203 elapsed seconds
Timing for main: time 2016-02-05_12:28:53 on domain   3:     .17246 elapsed seconds
Timing for main: time 2016-02-05_12:29:06 on domain   3:     .16271 elapsed seconds
Timing for main: time 2016-02-05_12:29:20 on domain   3:     .16323 elapsed seconds
Timing for main: time 2016-02-05_12:29:00 on domain   4:     .20390 elapsed seconds
Timing for main: time 2016-02-05_12:29:20 on domain   4:     .19656 elapsed seconds
Timing for main: time 2016-02-05_12:29:20 on domain   2:    1.59929 elapsed seconds
  photolysis_driver: called for domain  2
Timing for main: time 2016-02-05_12:29:33 on domain   3:     .17186 elapsed seconds
Timing for main: time 2016-02-05_12:29:46 on domain   3:     .16258 elapsed seconds
  photolysis_driver: called for domain  3
Timing for main: time 2016-02-05_12:30:00 on domain   3:     .94191 elapsed seconds
Timing for main: time 2016-02-05_12:29:40 on domain   4:     .20299 elapsed seconds
  photolysis_driver: called for domain  4
Timing for main: time 2016-02-05_12:30:00 on domain   4:    1.06989 elapsed seconds
Timing for main: time 2016-02-05_12:30:00 on domain   2:    4.19894 elapsed seconds
Timing for main: time 2016-02-05_12:30:00 on domain   1:    8.33047 elapsed seconds
Timing for main: time 2016-02-05_12:30:13 on domain   3:     .32365 elapsed seconds
Timing for main: time 2016-02-05_12:30:26 on domain   3:     .16184 elapsed seconds
Timing for main: time 2016-02-05_12:30:40 on domain   3:     .17116 elapsed seconds
Timing for main: time 2016-02-05_12:30:20 on domain   4:     .37705 elapsed seconds
Timing for main: time 2016-02-05_12:30:40 on domain   4:     .19443 elapsed seconds
Timing for main: time 2016-02-05_12:30:40 on domain   2:    2.13096 elapsed seconds
Timing for main: time 2016-02-05_12:30:53 on domain   3:     .17048 elapsed seconds
Timing for main: time 2016-02-05_12:31:06 on domain   3:     .16243 elapsed seconds
Timing for main: time 2016-02-05_12:31:20 on domain   3:     .16996 elapsed seconds
Timing for main: time 2016-02-05_12:31:00 on domain   4:     .20165 elapsed seconds
Timing for main: time 2016-02-05_12:31:20 on domain   4:     .20283 elapsed seconds
Timing for main: time 2016-02-05_12:31:20 on domain   2:    1.60716 elapsed seconds
Timing for main: time 2016-02-05_12:31:33 on domain   3:     .17094 elapsed seconds
Timing for main: time 2016-02-05_12:31:46 on domain   3:     .16400 elapsed seconds
Timing for main: time 2016-02-05_12:32:00 on domain   3:     .16239 elapsed seconds
Timing for main: time 2016-02-05_12:31:40 on domain   4:     .20260 elapsed seconds
Timing for main: time 2016-02-05_12:32:00 on domain   4:     .19575 elapsed seconds
Timing for main: time 2016-02-05_12:32:00 on domain   2:    1.60392 elapsed seconds
Timing for main: time 2016-02-05_12:32:00 on domain   1:    5.80843 elapsed seconds
Timing for main: time 2016-02-05_12:32:13 on domain   3:     .17081 elapsed seconds
Timing for main: time 2016-02-05_12:32:26 on domain   3:     .16228 elapsed seconds
Timing for main: time 2016-02-05_12:32:40 on domain   3:     .16169 elapsed seconds
Timing for main: time 2016-02-05_12:32:20 on domain   4:     .20263 elapsed seconds
Timing for main: time 2016-02-05_12:32:40 on domain   4:     .20015 elapsed seconds
Timing for main: time 2016-02-05_12:32:40 on domain   2:    1.61187 elapsed seconds
Timing for main: time 2016-02-05_12:32:53 on domain   3:     .17092 elapsed seconds
Timing for main: time 2016-02-05_12:33:06 on domain   3:     .16165 elapsed seconds
Timing for main: time 2016-02-05_12:33:20 on domain   3:     .16194 elapsed seconds
Timing for main: time 2016-02-05_12:33:00 on domain   4:     .20150 elapsed seconds
Timing for main: time 2016-02-05_12:33:20 on domain   4:     .19476 elapsed seconds
Timing for main: time 2016-02-05_12:33:20 on domain   2:    1.59038 elapsed seconds
Timing for main: time 2016-02-05_12:33:33 on domain   3:     .17049 elapsed seconds
Timing for main: time 2016-02-05_12:33:46 on domain   3:     .16191 elapsed seconds
Timing for main: time 2016-02-05_12:34:00 on domain   3:     .16478 elapsed seconds
Timing for main: time 2016-02-05_12:33:40 on domain   4:     .20426 elapsed seconds
Timing for main: time 2016-02-05_12:34:00 on domain   4:     .19605 elapsed seconds
Timing for main: time 2016-02-05_12:34:00 on domain   2:    1.62218 elapsed seconds
Timing for main: time 2016-02-05_12:34:00 on domain   1:    5.15595 elapsed seconds
Timing for main: time 2016-02-05_12:34:13 on domain   3:     .17037 elapsed seconds
Timing for main: time 2016-02-05_12:34:26 on domain   3:     .16168 elapsed seconds
Timing for main: time 2016-02-05_12:34:40 on domain   3:     .16646 elapsed seconds
Timing for main: time 2016-02-05_12:34:20 on domain   4:     .20193 elapsed seconds
Timing for main: time 2016-02-05_12:34:40 on domain   4:     .19493 elapsed seconds
Timing for main: time 2016-02-05_12:34:40 on domain   2:    1.60885 elapsed seconds
Timing for main: time 2016-02-05_12:34:53 on domain   3:     .17245 elapsed seconds
Timing for main: time 2016-02-05_12:35:06 on domain   3:     .16285 elapsed seconds
Timing for main: time 2016-02-05_12:35:20 on domain   3:     .16239 elapsed seconds
Timing for main: time 2016-02-05_12:35:00 on domain   4:     .21046 elapsed seconds
Timing for main: time 2016-02-05_12:35:20 on domain   4:     .19658 elapsed seconds
Timing for main: time 2016-02-05_12:35:20 on domain   2:    1.66309 elapsed seconds
Timing for main: time 2016-02-05_12:35:33 on domain   3:     .17285 elapsed seconds
Timing for main: time 2016-02-05_12:35:46 on domain   3:     .16911 elapsed seconds
Timing for main: time 2016-02-05_12:36:00 on domain   3:     .16189 elapsed seconds
Timing for main: time 2016-02-05_12:35:40 on domain   4:     .20180 elapsed seconds
Timing for main: time 2016-02-05_12:36:00 on domain   4:     .22633 elapsed seconds
Timing for main: time 2016-02-05_12:36:00 on domain   2:    1.63315 elapsed seconds
Timing for main: time 2016-02-05_12:36:00 on domain   1:    5.24072 elapsed seconds
Timing for main: time 2016-02-05_12:36:13 on domain   3:     .17310 elapsed seconds
Timing for main: time 2016-02-05_12:36:26 on domain   3:     .16172 elapsed seconds
Timing for main: time 2016-02-05_12:36:40 on domain   3:     .16555 elapsed seconds
Timing for main: time 2016-02-05_12:36:20 on domain   4:     .20162 elapsed seconds
Timing for main: time 2016-02-05_12:36:40 on domain   4:     .19627 elapsed seconds
Timing for main: time 2016-02-05_12:36:40 on domain   2:    1.61345 elapsed seconds
Timing for main: time 2016-02-05_12:36:53 on domain   3:     .17060 elapsed seconds
Timing for main: time 2016-02-05_12:37:06 on domain   3:     .16178 elapsed seconds
Timing for main: time 2016-02-05_12:37:20 on domain   3:     .16202 elapsed seconds
Timing for main: time 2016-02-05_12:37:00 on domain   4:     .20142 elapsed seconds
Timing for main: time 2016-02-05_12:37:20 on domain   4:     .19595 elapsed seconds
Timing for main: time 2016-02-05_12:37:20 on domain   2:    1.60078 elapsed seconds
Timing for main: time 2016-02-05_12:37:33 on domain   3:     .17046 elapsed seconds
Timing for main: time 2016-02-05_12:37:46 on domain   3:     .16180 elapsed seconds
Timing for main: time 2016-02-05_12:38:00 on domain   3:     .16461 elapsed seconds
Timing for main: time 2016-02-05_12:37:40 on domain   4:     .20189 elapsed seconds
Timing for main: time 2016-02-05_12:38:00 on domain   4:     .19414 elapsed seconds
Timing for main: time 2016-02-05_12:38:00 on domain   2:    1.59400 elapsed seconds
Timing for main: time 2016-02-05_12:38:00 on domain   1:    5.18196 elapsed seconds
Timing for main: time 2016-02-05_12:38:13 on domain   3:     .17046 elapsed seconds
Timing for main: time 2016-02-05_12:38:26 on domain   3:     .16261 elapsed seconds
Timing for main: time 2016-02-05_12:38:40 on domain   3:     .16205 elapsed seconds
Timing for main: time 2016-02-05_12:38:20 on domain   4:     .20689 elapsed seconds
Timing for main: time 2016-02-05_12:38:40 on domain   4:     .19511 elapsed seconds
Timing for main: time 2016-02-05_12:38:40 on domain   2:    1.60847 elapsed seconds
Timing for main: time 2016-02-05_12:38:53 on domain   3:     .17020 elapsed seconds
Timing for main: time 2016-02-05_12:39:06 on domain   3:     .16161 elapsed seconds
Timing for main: time 2016-02-05_12:39:20 on domain   3:     .16209 elapsed seconds
Timing for main: time 2016-02-05_12:39:00 on domain   4:     .20200 elapsed seconds
Timing for main: time 2016-02-05_12:39:20 on domain   4:     .19459 elapsed seconds
Timing for main: time 2016-02-05_12:39:20 on domain   2:    1.59108 elapsed seconds
Timing for main: time 2016-02-05_12:39:33 on domain   3:     .17056 elapsed seconds
Timing for main: time 2016-02-05_12:39:46 on domain   3:     .16128 elapsed seconds
Timing for main: time 2016-02-05_12:40:00 on domain   3:     .16332 elapsed seconds
Timing for main: time 2016-02-05_12:39:40 on domain   4:     .20210 elapsed seconds
Timing for main: time 2016-02-05_12:40:00 on domain   4:     .20262 elapsed seconds
Timing for main: time 2016-02-05_12:40:00 on domain   2:    1.59879 elapsed seconds
Timing for main: time 2016-02-05_12:40:00 on domain   1:    5.12856 elapsed seconds
Timing for main: time 2016-02-05_12:40:13 on domain   3:     .17055 elapsed seconds
Timing for main: time 2016-02-05_12:40:26 on domain   3:     .16277 elapsed seconds
Timing for main: time 2016-02-05_12:40:40 on domain   3:     .16162 elapsed seconds
Timing for main: time 2016-02-05_12:40:20 on domain   4:     .20301 elapsed seconds
Timing for main: time 2016-02-05_12:40:40 on domain   4:     .19466 elapsed seconds
Timing for main: time 2016-02-05_12:40:40 on domain   2:    1.60609 elapsed seconds
Timing for main: time 2016-02-05_12:40:53 on domain   3:     .17771 elapsed seconds
Timing for main: time 2016-02-05_12:41:06 on domain   3:     .16215 elapsed seconds
Timing for main: time 2016-02-05_12:41:20 on domain   3:     .16171 elapsed seconds
Timing for main: time 2016-02-05_12:41:00 on domain   4:     .20184 elapsed seconds
Timing for main: time 2016-02-05_12:41:20 on domain   4:     .19413 elapsed seconds
Timing for main: time 2016-02-05_12:41:20 on domain   2:    1.59873 elapsed seconds
Timing for main: time 2016-02-05_12:41:33 on domain   3:     .17127 elapsed seconds
Timing for main: time 2016-02-05_12:41:46 on domain   3:     .16277 elapsed seconds
Timing for main: time 2016-02-05_12:42:00 on domain   3:     .16326 elapsed seconds
Timing for main: time 2016-02-05_12:41:40 on domain   4:     .20196 elapsed seconds
Timing for main: time 2016-02-05_12:42:00 on domain   4:     .19487 elapsed seconds
Timing for main: time 2016-02-05_12:42:00 on domain   2:    1.59381 elapsed seconds
Timing for main: time 2016-02-05_12:42:00 on domain   1:    5.13353 elapsed seconds
Timing for main: time 2016-02-05_12:42:13 on domain   3:     .21148 elapsed seconds
Timing for main: time 2016-02-05_12:42:26 on domain   3:     .21507 elapsed seconds
Timing for main: time 2016-02-05_12:42:40 on domain   3:     .16144 elapsed seconds
Timing for main: time 2016-02-05_12:42:20 on domain   4:     .20310 elapsed seconds
Timing for main: time 2016-02-05_12:42:40 on domain   4:     .19479 elapsed seconds
Timing for main: time 2016-02-05_12:42:40 on domain   2:    1.70834 elapsed seconds
Timing for main: time 2016-02-05_12:42:53 on domain   3:     .17702 elapsed seconds
Timing for main: time 2016-02-05_12:43:06 on domain   3:     .16111 elapsed seconds
Timing for main: time 2016-02-05_12:43:20 on domain   3:     .16596 elapsed seconds
Timing for main: time 2016-02-05_12:43:00 on domain   4:     .20330 elapsed seconds
Timing for main: time 2016-02-05_12:43:20 on domain   4:     .19447 elapsed seconds
Timing for main: time 2016-02-05_12:43:20 on domain   2:    1.60149 elapsed seconds
Timing for main: time 2016-02-05_12:43:33 on domain   3:     .17024 elapsed seconds
Timing for main: time 2016-02-05_12:43:46 on domain   3:     .16777 elapsed seconds
Timing for main: time 2016-02-05_12:44:00 on domain   3:     .16174 elapsed seconds
Timing for main: time 2016-02-05_12:43:40 on domain   4:     .20197 elapsed seconds
Timing for main: time 2016-02-05_12:44:00 on domain   4:     .19443 elapsed seconds
Timing for main: time 2016-02-05_12:44:00 on domain   2:    1.59507 elapsed seconds
Timing for main: time 2016-02-05_12:44:00 on domain   1:    5.23342 elapsed seconds
Timing for main: time 2016-02-05_12:44:13 on domain   3:     .17259 elapsed seconds
Timing for main: time 2016-02-05_12:44:26 on domain   3:     .16151 elapsed seconds
Timing for main: time 2016-02-05_12:44:40 on domain   3:     .16388 elapsed seconds
Timing for main: time 2016-02-05_12:44:20 on domain   4:     .20185 elapsed seconds
Timing for main: time 2016-02-05_12:44:40 on domain   4:     .19481 elapsed seconds
Timing for main: time 2016-02-05_12:44:40 on domain   2:    1.60907 elapsed seconds
Timing for main: time 2016-02-05_12:44:53 on domain   3:     .17115 elapsed seconds
Timing for main: time 2016-02-05_12:45:06 on domain   3:     .16185 elapsed seconds
Timing for main: time 2016-02-05_12:45:20 on domain   3:     .16161 elapsed seconds
Timing for main: time 2016-02-05_12:45:00 on domain   4:     .21057 elapsed seconds
Timing for main: time 2016-02-05_12:45:20 on domain   4:     .19400 elapsed seconds
Timing for main: time 2016-02-05_12:45:20 on domain   2:    1.59803 elapsed seconds
Timing for main: time 2016-02-05_12:45:33 on domain   3:     .17008 elapsed seconds
Timing for main: time 2016-02-05_12:45:46 on domain   3:     .16179 elapsed seconds
Timing for main: time 2016-02-05_12:46:00 on domain   3:     .16918 elapsed seconds
Timing for main: time 2016-02-05_12:45:40 on domain   4:     .20003 elapsed seconds
Timing for main: time 2016-02-05_12:46:00 on domain   4:     .19448 elapsed seconds
Timing for main: time 2016-02-05_12:46:00 on domain   2:    1.59690 elapsed seconds
Timing for main: time 2016-02-05_12:46:00 on domain   1:    5.13117 elapsed seconds
Timing for main: time 2016-02-05_12:46:13 on domain   3:     .17029 elapsed seconds
Timing for main: time 2016-02-05_12:46:26 on domain   3:     .16190 elapsed seconds
Timing for main: time 2016-02-05_12:46:40 on domain   3:     .16257 elapsed seconds
Timing for main: time 2016-02-05_12:46:20 on domain   4:     .20180 elapsed seconds
Timing for main: time 2016-02-05_12:46:40 on domain   4:     .19507 elapsed seconds
Timing for main: time 2016-02-05_12:46:40 on domain   2:    1.60572 elapsed seconds
Timing for main: time 2016-02-05_12:46:53 on domain   3:     .17002 elapsed seconds
Timing for main: time 2016-02-05_12:47:06 on domain   3:     .16177 elapsed seconds
Timing for main: time 2016-02-05_12:47:20 on domain   3:     .16226 elapsed seconds
Timing for main: time 2016-02-05_12:47:00 on domain   4:     .20183 elapsed seconds
Timing for main: time 2016-02-05_12:47:20 on domain   4:     .19422 elapsed seconds
Timing for main: time 2016-02-05_12:47:20 on domain   2:    1.59069 elapsed seconds
Timing for main: time 2016-02-05_12:47:33 on domain   3:     .17055 elapsed seconds
Timing for main: time 2016-02-05_12:47:46 on domain   3:     .16175 elapsed seconds
Timing for main: time 2016-02-05_12:48:00 on domain   3:     .16164 elapsed seconds
Timing for main: time 2016-02-05_12:47:40 on domain   4:     .20181 elapsed seconds
Timing for main: time 2016-02-05_12:48:00 on domain   4:     .19423 elapsed seconds
Timing for main: time 2016-02-05_12:48:00 on domain   2:    1.59840 elapsed seconds
Timing for main: time 2016-02-05_12:48:00 on domain   1:    5.13150 elapsed seconds
Timing for main: time 2016-02-05_12:48:13 on domain   3:     .17031 elapsed seconds
Timing for main: time 2016-02-05_12:48:26 on domain   3:     .16163 elapsed seconds
Timing for main: time 2016-02-05_12:48:40 on domain   3:     .16185 elapsed seconds
Timing for main: time 2016-02-05_12:48:20 on domain   4:     .20202 elapsed seconds
Timing for main: time 2016-02-05_12:48:40 on domain   4:     .19456 elapsed seconds
Timing for main: time 2016-02-05_12:48:40 on domain   2:    1.61520 elapsed seconds
Timing for main: time 2016-02-05_12:48:53 on domain   3:     .17189 elapsed seconds
Timing for main: time 2016-02-05_12:49:06 on domain   3:     .16183 elapsed seconds
Timing for main: time 2016-02-05_12:49:20 on domain   3:     .16418 elapsed seconds
Timing for main: time 2016-02-05_12:49:00 on domain   4:     .20203 elapsed seconds
Timing for main: time 2016-02-05_12:49:20 on domain   4:     .19660 elapsed seconds
Timing for main: time 2016-02-05_12:49:20 on domain   2:    1.59611 elapsed seconds
Timing for main: time 2016-02-05_12:49:33 on domain   3:     .17037 elapsed seconds
Timing for main: time 2016-02-05_12:49:46 on domain   3:     .16151 elapsed seconds
Timing for main: time 2016-02-05_12:50:00 on domain   3:     .16454 elapsed seconds
Timing for main: time 2016-02-05_12:49:40 on domain   4:     .20180 elapsed seconds
Timing for main: time 2016-02-05_12:50:00 on domain   4:     .20318 elapsed seconds
Timing for main: time 2016-02-05_12:50:00 on domain   2:    1.59749 elapsed seconds
Timing for main: time 2016-02-05_12:50:00 on domain   1:    5.13753 elapsed seconds
Timing for main: time 2016-02-05_12:50:13 on domain   3:     .17054 elapsed seconds
Timing for main: time 2016-02-05_12:50:26 on domain   3:     .16271 elapsed seconds
Timing for main: time 2016-02-05_12:50:40 on domain   3:     .16218 elapsed seconds
Timing for main: time 2016-02-05_12:50:20 on domain   4:     .20197 elapsed seconds
Timing for main: time 2016-02-05_12:50:40 on domain   4:     .19465 elapsed seconds
Timing for main: time 2016-02-05_12:50:40 on domain   2:    1.60776 elapsed seconds
Timing for main: time 2016-02-05_12:50:53 on domain   3:     .17054 elapsed seconds
Timing for main: time 2016-02-05_12:51:06 on domain   3:     .16885 elapsed seconds
Timing for main: time 2016-02-05_12:51:20 on domain   3:     .16200 elapsed seconds
Timing for main: time 2016-02-05_12:51:00 on domain   4:     .20168 elapsed seconds
Timing for main: time 2016-02-05_12:51:20 on domain   4:     .19417 elapsed seconds
Timing for main: time 2016-02-05_12:51:20 on domain   2:    1.59739 elapsed seconds
Timing for main: time 2016-02-05_12:51:33 on domain   3:     .20449 elapsed seconds
Timing for main: time 2016-02-05_12:51:46 on domain   3:     .16663 elapsed seconds
Timing for main: time 2016-02-05_12:52:00 on domain   3:     .16176 elapsed seconds
Timing for main: time 2016-02-05_12:51:40 on domain   4:     .20351 elapsed seconds
Timing for main: time 2016-02-05_12:52:00 on domain   4:     .19431 elapsed seconds
Timing for main: time 2016-02-05_12:52:00 on domain   2:    1.63205 elapsed seconds
Timing for main: time 2016-02-05_12:52:00 on domain   1:    5.16449 elapsed seconds
Timing for main: time 2016-02-05_12:52:13 on domain   3:     .17110 elapsed seconds
Timing for main: time 2016-02-05_12:52:26 on domain   3:     .16257 elapsed seconds
Timing for main: time 2016-02-05_12:52:40 on domain   3:     .16158 elapsed seconds
Timing for main: time 2016-02-05_12:52:20 on domain   4:     .20191 elapsed seconds
Timing for main: time 2016-02-05_12:52:40 on domain   4:     .19463 elapsed seconds
Timing for main: time 2016-02-05_12:52:40 on domain   2:    1.60549 elapsed seconds
Timing for main: time 2016-02-05_12:52:53 on domain   3:     .17009 elapsed seconds
Timing for main: time 2016-02-05_12:53:06 on domain   3:     .16174 elapsed seconds
Timing for main: time 2016-02-05_12:53:20 on domain   3:     .16369 elapsed seconds
Timing for main: time 2016-02-05_12:53:00 on domain   4:     .20423 elapsed seconds
Timing for main: time 2016-02-05_12:53:20 on domain   4:     .19554 elapsed seconds
Timing for main: time 2016-02-05_12:53:20 on domain   2:    1.60424 elapsed seconds
Timing for main: time 2016-02-05_12:53:33 on domain   3:     .17054 elapsed seconds
Timing for main: time 2016-02-05_12:53:46 on domain   3:     .16301 elapsed seconds
Timing for main: time 2016-02-05_12:54:00 on domain   3:     .16321 elapsed seconds
Timing for main: time 2016-02-05_12:53:40 on domain   4:     .20231 elapsed seconds
Timing for main: time 2016-02-05_12:54:00 on domain   4:     .19429 elapsed seconds
Timing for main: time 2016-02-05_12:54:00 on domain   2:    1.59362 elapsed seconds
Timing for main: time 2016-02-05_12:54:00 on domain   1:    5.13822 elapsed seconds
Timing for main: time 2016-02-05_12:54:13 on domain   3:     .17172 elapsed seconds
Timing for main: time 2016-02-05_12:54:26 on domain   3:     .16614 elapsed seconds
Timing for main: time 2016-02-05_12:54:40 on domain   3:     .16138 elapsed seconds
Timing for main: time 2016-02-05_12:54:20 on domain   4:     .20764 elapsed seconds
Timing for main: time 2016-02-05_12:54:40 on domain   4:     .21037 elapsed seconds
Timing for main: time 2016-02-05_12:54:40 on domain   2:    1.63156 elapsed seconds
Timing for main: time 2016-02-05_12:54:53 on domain   3:     .17118 elapsed seconds
Timing for main: time 2016-02-05_12:55:06 on domain   3:     .16164 elapsed seconds
Timing for main: time 2016-02-05_12:55:20 on domain   3:     .16188 elapsed seconds
Timing for main: time 2016-02-05_12:55:00 on domain   4:     .21031 elapsed seconds
Timing for main: time 2016-02-05_12:55:20 on domain   4:     .19823 elapsed seconds
Timing for main: time 2016-02-05_12:55:20 on domain   2:    1.60385 elapsed seconds
Timing for main: time 2016-02-05_12:55:33 on domain   3:     .17110 elapsed seconds
Timing for main: time 2016-02-05_12:55:46 on domain   3:     .16222 elapsed seconds
Timing for main: time 2016-02-05_12:56:00 on domain   3:     .16186 elapsed seconds
Timing for main: time 2016-02-05_12:55:40 on domain   4:     .20247 elapsed seconds
Timing for main: time 2016-02-05_12:56:00 on domain   4:     .19498 elapsed seconds
Timing for main: time 2016-02-05_12:56:00 on domain   2:    1.59379 elapsed seconds
Timing for main: time 2016-02-05_12:56:00 on domain   1:    5.15723 elapsed seconds
Timing for main: time 2016-02-05_12:56:13 on domain   3:     .17831 elapsed seconds
Timing for main: time 2016-02-05_12:56:26 on domain   3:     .16129 elapsed seconds
Timing for main: time 2016-02-05_12:56:40 on domain   3:     .16218 elapsed seconds
Timing for main: time 2016-02-05_12:56:20 on domain   4:     .20229 elapsed seconds
Timing for main: time 2016-02-05_12:56:40 on domain   4:     .19486 elapsed seconds
Timing for main: time 2016-02-05_12:56:40 on domain   2:    1.61378 elapsed seconds
Timing for main: time 2016-02-05_12:56:53 on domain   3:     .17290 elapsed seconds
Timing for main: time 2016-02-05_12:57:06 on domain   3:     .16166 elapsed seconds
Timing for main: time 2016-02-05_12:57:20 on domain   3:     .16189 elapsed seconds
Timing for main: time 2016-02-05_12:57:00 on domain   4:     .20177 elapsed seconds
Timing for main: time 2016-02-05_12:57:20 on domain   4:     .19447 elapsed seconds
Timing for main: time 2016-02-05_12:57:20 on domain   2:    1.59468 elapsed seconds
Timing for main: time 2016-02-05_12:57:33 on domain   3:     .16908 elapsed seconds
Timing for main: time 2016-02-05_12:57:46 on domain   3:     .16169 elapsed seconds
Timing for main: time 2016-02-05_12:58:00 on domain   3:     .16192 elapsed seconds
Timing for main: time 2016-02-05_12:57:40 on domain   4:     .20256 elapsed seconds
Timing for main: time 2016-02-05_12:58:00 on domain   4:     .19478 elapsed seconds
Timing for main: time 2016-02-05_12:58:00 on domain   2:    1.59250 elapsed seconds
Timing for main: time 2016-02-05_12:58:00 on domain   1:    5.12913 elapsed seconds
  photolysis_driver: called for domain  1
Timing for main: time 2016-02-05_12:58:13 on domain   3:     .17046 elapsed seconds
Timing for main: time 2016-02-05_12:58:26 on domain   3:     .16435 elapsed seconds
Timing for main: time 2016-02-05_12:58:40 on domain   3:     .16182 elapsed seconds
Timing for main: time 2016-02-05_12:58:20 on domain   4:     .20215 elapsed seconds
Timing for main: time 2016-02-05_12:58:40 on domain   4:     .19659 elapsed seconds
Timing for main: time 2016-02-05_12:58:40 on domain   2:    1.61998 elapsed seconds
Timing for main: time 2016-02-05_12:58:53 on domain   3:     .17070 elapsed seconds
Timing for main: time 2016-02-05_12:59:06 on domain   3:     .16204 elapsed seconds
Timing for main: time 2016-02-05_12:59:20 on domain   3:     .16242 elapsed seconds
Timing for main: time 2016-02-05_12:59:00 on domain   4:     .20712 elapsed seconds
Timing for main: time 2016-02-05_12:59:20 on domain   4:     .19352 elapsed seconds
Timing for main: time 2016-02-05_12:59:20 on domain   2:    1.59534 elapsed seconds
  photolysis_driver: called for domain  2
Timing for main: time 2016-02-05_12:59:33 on domain   3:     .17138 elapsed seconds
Timing for main: time 2016-02-05_12:59:46 on domain   3:     .16151 elapsed seconds
  photolysis_driver: called for domain  3
Timing for main: time 2016-02-05_13:00:00 on domain   3:     .94054 elapsed seconds
Timing for main: time 2016-02-05_12:59:40 on domain   4:     .20268 elapsed seconds
  photolysis_driver: called for domain  4
Timing for main: time 2016-02-05_13:00:00 on domain   4:    1.06996 elapsed seconds
Timing for main: time 2016-02-05_13:00:00 on domain   2:    4.20566 elapsed seconds
Timing for main: time 2016-02-05_13:00:00 on domain   1:    8.33576 elapsed seconds
Timing for Writing wrfout_d01_2016-02-05_13:00:00 for domain        1:    1.49703 elapsed seconds
  HOURLY EMISSIONS UPDATE TIME     3600.0        .0
 mediation_integrate: med_read_wrf_chem_emissions: Read emissions for time 2016-02-05_13:00:00
 **WARNING** Time in input file not being checked **WARNING**
Timing for Writing wrfout_d02_2016-02-05_13:00:00 for domain        2:    2.13882 elapsed seconds
Timing for Writing wrfout_d03_2016-02-05_13:00:00 for domain        3:    1.98589 elapsed seconds
Timing for main: time 2016-02-05_13:00:13 on domain   3:    2.36902 elapsed seconds
Timing for main: time 2016-02-05_13:00:26 on domain   3:     .20449 elapsed seconds
Timing for main: time 2016-02-05_13:00:40 on domain   3:     .18499 elapsed seconds
Timing for Writing wrfout_d04_2016-02-05_13:00:00 for domain        4:    1.98862 elapsed seconds
Timing for main: time 2016-02-05_13:00:20 on domain   4:    2.44413 elapsed seconds
Timing for main: time 2016-02-05_13:00:40 on domain   4:     .23849 elapsed seconds
Timing for main: time 2016-02-05_13:00:40 on domain   2:    8.55508 elapsed seconds
Timing for main: time 2016-02-05_13:00:53 on domain   3:     .17028 elapsed seconds
Timing for main: time 2016-02-05_13:01:06 on domain   3:     .16211 elapsed seconds
Timing for main: time 2016-02-05_13:01:20 on domain   3:     .16972 elapsed seconds
Timing for main: time 2016-02-05_13:01:00 on domain   4:     .20203 elapsed seconds
Timing for main: time 2016-02-05_13:01:20 on domain   4:     .19433 elapsed seconds
Timing for main: time 2016-02-05_13:01:20 on domain   2:    1.61685 elapsed seconds
Timing for main: time 2016-02-05_13:01:33 on domain   3:     .17142 elapsed seconds
Timing for main: time 2016-02-05_13:01:46 on domain   3:     .16176 elapsed seconds
Timing for main: time 2016-02-05_13:02:00 on domain   3:     .16197 elapsed seconds
Timing for main: time 2016-02-05_13:01:40 on domain   4:     .20250 elapsed seconds
Timing for main: time 2016-02-05_13:02:00 on domain   4:     .19543 elapsed seconds
Timing for main: time 2016-02-05_13:02:00 on domain   2:    1.59307 elapsed seconds
Timing for main: time 2016-02-05_13:02:00 on domain   1:   14.40728 elapsed seconds
Timing for main: time 2016-02-05_13:02:13 on domain   3:     .17042 elapsed seconds
Timing for main: time 2016-02-05_13:02:26 on domain   3:     .16176 elapsed seconds
Timing for main: time 2016-02-05_13:02:40 on domain   3:     .16220 elapsed seconds
Timing for main: time 2016-02-05_13:02:20 on domain   4:     .20217 elapsed seconds
Timing for main: time 2016-02-05_13:02:40 on domain   4:     .19446 elapsed seconds
Timing for main: time 2016-02-05_13:02:40 on domain   2:    1.60611 elapsed seconds
Timing for main: time 2016-02-05_13:02:53 on domain   3:     .17126 elapsed seconds
Timing for main: time 2016-02-05_13:03:06 on domain   3:     .16132 elapsed seconds
Timing for main: time 2016-02-05_13:03:20 on domain   3:     .16293 elapsed seconds
Timing for main: time 2016-02-05_13:03:00 on domain   4:     .20202 elapsed seconds
Timing for main: time 2016-02-05_13:03:20 on domain   4:     .19478 elapsed seconds
Timing for main: time 2016-02-05_13:03:20 on domain   2:    1.61981 elapsed seconds
Timing for main: time 2016-02-05_13:03:33 on domain   3:     .17044 elapsed seconds
Timing for main: time 2016-02-05_13:03:46 on domain   3:     .16204 elapsed seconds
Timing for main: time 2016-02-05_13:04:00 on domain   3:     .16224 elapsed seconds
Timing for main: time 2016-02-05_13:03:40 on domain   4:     .20198 elapsed seconds
Timing for main: time 2016-02-05_13:04:00 on domain   4:     .19778 elapsed seconds
Timing for main: time 2016-02-05_13:04:00 on domain   2:    1.60248 elapsed seconds
Timing for main: time 2016-02-05_13:04:00 on domain   1:    5.15605 elapsed seconds
Timing for main: time 2016-02-05_13:04:13 on domain   3:     .17084 elapsed seconds
Timing for main: time 2016-02-05_13:04:26 on domain   3:     .16142 elapsed seconds
Timing for main: time 2016-02-05_13:04:40 on domain   3:     .16208 elapsed seconds
Timing for main: time 2016-02-05_13:04:20 on domain   4:     .20184 elapsed seconds
Timing for main: time 2016-02-05_13:04:40 on domain   4:     .19598 elapsed seconds
Timing for main: time 2016-02-05_13:04:40 on domain   2:    1.60678 elapsed seconds
Timing for main: time 2016-02-05_13:04:53 on domain   3:     .18745 elapsed seconds
Timing for main: time 2016-02-05_13:05:06 on domain   3:     .24195 elapsed seconds
Timing for main: time 2016-02-05_13:05:20 on domain   3:     .16475 elapsed seconds
Timing for main: time 2016-02-05_13:05:00 on domain   4:     .21078 elapsed seconds
Timing for main: time 2016-02-05_13:05:20 on domain   4:     .19470 elapsed seconds
Timing for main: time 2016-02-05_13:05:20 on domain   2:    1.70043 elapsed seconds
Timing for main: time 2016-02-05_13:05:33 on domain   3:     .20091 elapsed seconds
Timing for main: time 2016-02-05_13:05:46 on domain   3:     .19372 elapsed seconds
Timing for main: time 2016-02-05_13:06:00 on domain   3:     .16380 elapsed seconds
Timing for main: time 2016-02-05_13:05:40 on domain   4:     .20201 elapsed seconds
Timing for main: time 2016-02-05_13:06:00 on domain   4:     .19783 elapsed seconds
Timing for main: time 2016-02-05_13:06:00 on domain   2:    1.65954 elapsed seconds
Timing for main: time 2016-02-05_13:06:00 on domain   1:    5.30195 elapsed seconds
Timing for main: time 2016-02-05_13:06:13 on domain   3:     .17035 elapsed seconds
Timing for main: time 2016-02-05_13:06:26 on domain   3:     .17280 elapsed seconds
Timing for main: time 2016-02-05_13:06:40 on domain   3:     .16271 elapsed seconds
Timing for main: time 2016-02-05_13:06:20 on domain   4:     .20316 elapsed seconds
Timing for main: time 2016-02-05_13:06:40 on domain   4:     .19416 elapsed seconds
Timing for main: time 2016-02-05_13:06:40 on domain   2:    1.61882 elapsed seconds
Timing for main: time 2016-02-05_13:06:53 on domain   3:     .17058 elapsed seconds
Timing for main: time 2016-02-05_13:07:06 on domain   3:     .16204 elapsed seconds
Timing for main: time 2016-02-05_13:07:20 on domain   3:     .16329 elapsed seconds
Timing for main: time 2016-02-05_13:07:00 on domain   4:     .20198 elapsed seconds
Timing for main: time 2016-02-05_13:07:20 on domain   4:     .19470 elapsed seconds
Timing for main: time 2016-02-05_13:07:20 on domain   2:    1.59537 elapsed seconds
Timing for main: time 2016-02-05_13:07:33 on domain   3:     .17294 elapsed seconds
Timing for main: time 2016-02-05_13:07:46 on domain   3:     .16255 elapsed seconds
Timing for main: time 2016-02-05_13:08:00 on domain   3:     .16206 elapsed seconds
Timing for main: time 2016-02-05_13:07:40 on domain   4:     .20316 elapsed seconds
Timing for main: time 2016-02-05_13:08:00 on domain   4:     .19521 elapsed seconds
Timing for main: time 2016-02-05_13:08:00 on domain   2:    1.59620 elapsed seconds
Timing for main: time 2016-02-05_13:08:00 on domain   1:    5.13685 elapsed seconds
Timing for main: time 2016-02-05_13:08:13 on domain   3:     .17099 elapsed seconds
Timing for main: time 2016-02-05_13:08:26 on domain   3:     .16186 elapsed seconds
Timing for main: time 2016-02-05_13:08:40 on domain   3:     .16222 elapsed seconds
Timing for main: time 2016-02-05_13:08:20 on domain   4:     .20211 elapsed seconds
Timing for main: time 2016-02-05_13:08:40 on domain   4:     .20034 elapsed seconds
Timing for main: time 2016-02-05_13:08:40 on domain   2:    1.61278 elapsed seconds
Timing for main: time 2016-02-05_13:08:53 on domain   3:     .17032 elapsed seconds
Timing for main: time 2016-02-05_13:09:06 on domain   3:     .16192 elapsed seconds
Timing for main: time 2016-02-05_13:09:20 on domain   3:     .16206 elapsed seconds
Timing for main: time 2016-02-05_13:09:00 on domain   4:     .20217 elapsed seconds
Timing for main: time 2016-02-05_13:09:20 on domain   4:     .19476 elapsed seconds
Timing for main: time 2016-02-05_13:09:20 on domain   2:    1.60179 elapsed seconds
Timing for main: time 2016-02-05_13:09:33 on domain   3:     .17070 elapsed seconds
Timing for main: time 2016-02-05_13:09:46 on domain   3:     .16188 elapsed seconds
Timing for main: time 2016-02-05_13:10:00 on domain   3:     .16293 elapsed seconds
Timing for main: time 2016-02-05_13:09:40 on domain   4:     .20120 elapsed seconds
Timing for main: time 2016-02-05_13:10:00 on domain   4:     .20322 elapsed seconds
Timing for main: time 2016-02-05_13:10:00 on domain   2:    1.60142 elapsed seconds
Timing for main: time 2016-02-05_13:10:00 on domain   1:    5.14264 elapsed seconds
Timing for main: time 2016-02-05_13:10:13 on domain   3:     .17055 elapsed seconds
Timing for main: time 2016-02-05_13:10:26 on domain   3:     .16182 elapsed seconds
Timing for main: time 2016-02-05_13:10:40 on domain   3:     .16230 elapsed seconds
Timing for main: time 2016-02-05_13:10:20 on domain   4:     .20185 elapsed seconds
Timing for main: time 2016-02-05_13:10:40 on domain   4:     .19689 elapsed seconds
Timing for main: time 2016-02-05_13:10:40 on domain   2:    1.60899 elapsed seconds
Timing for main: time 2016-02-05_13:10:53 on domain   3:     .17600 elapsed seconds
Timing for main: time 2016-02-05_13:11:06 on domain   3:     .16226 elapsed seconds
Timing for main: time 2016-02-05_13:11:20 on domain   3:     .16224 elapsed seconds
Timing for main: time 2016-02-05_13:11:00 on domain   4:     .20197 elapsed seconds
Timing for main: time 2016-02-05_13:11:20 on domain   4:     .19446 elapsed seconds
Timing for main: time 2016-02-05_13:11:20 on domain   2:    1.59765 elapsed seconds
Timing for main: time 2016-02-05_13:11:33 on domain   3:     .18457 elapsed seconds
Timing for main: time 2016-02-05_13:11:46 on domain   3:     .16731 elapsed seconds
Timing for main: time 2016-02-05_13:12:00 on domain   3:     .16327 elapsed seconds
Timing for main: time 2016-02-05_13:11:40 on domain   4:     .20200 elapsed seconds
Timing for main: time 2016-02-05_13:12:00 on domain   4:     .19450 elapsed seconds
Timing for main: time 2016-02-05_13:12:00 on domain   2:    1.61232 elapsed seconds
Timing for main: time 2016-02-05_13:12:00 on domain   1:    5.15372 elapsed seconds
Timing for main: time 2016-02-05_13:12:13 on domain   3:     .17134 elapsed seconds
Timing for main: time 2016-02-05_13:12:26 on domain   3:     .16203 elapsed seconds
Timing for main: time 2016-02-05_13:12:40 on domain   3:     .16451 elapsed seconds
Timing for main: time 2016-02-05_13:12:20 on domain   4:     .20189 elapsed seconds
Timing for main: time 2016-02-05_13:12:40 on domain   4:     .19436 elapsed seconds
Timing for main: time 2016-02-05_13:12:40 on domain   2:    1.60915 elapsed seconds
Timing for main: time 2016-02-05_13:12:53 on domain   3:     .17059 elapsed seconds
Timing for main: time 2016-02-05_13:13:06 on domain   3:     .16178 elapsed seconds
Timing for main: time 2016-02-05_13:13:20 on domain   3:     .16206 elapsed seconds
Timing for main: time 2016-02-05_13:13:00 on domain   4:     .20939 elapsed seconds
Timing for main: time 2016-02-05_13:13:20 on domain   4:     .19418 elapsed seconds
Timing for main: time 2016-02-05_13:13:20 on domain   2:    1.60226 elapsed seconds
Timing for main: time 2016-02-05_13:13:33 on domain   3:     .17051 elapsed seconds
Timing for main: time 2016-02-05_13:13:46 on domain   3:     .16442 elapsed seconds
Timing for main: time 2016-02-05_13:14:00 on domain   3:     .16206 elapsed seconds
Timing for main: time 2016-02-05_13:13:40 on domain   4:     .20171 elapsed seconds
Timing for main: time 2016-02-05_13:14:00 on domain   4:     .19464 elapsed seconds
Timing for main: time 2016-02-05_13:14:00 on domain   2:    1.60328 elapsed seconds
Timing for main: time 2016-02-05_13:14:00 on domain   1:    5.14254 elapsed seconds
Timing for main: time 2016-02-05_13:14:13 on domain   3:     .17130 elapsed seconds
Timing for main: time 2016-02-05_13:14:26 on domain   3:     .16226 elapsed seconds
Timing for main: time 2016-02-05_13:14:40 on domain   3:     .17592 elapsed seconds
Timing for main: time 2016-02-05_13:14:20 on domain   4:     .20163 elapsed seconds
Timing for main: time 2016-02-05_13:14:40 on domain   4:     .19529 elapsed seconds
Timing for main: time 2016-02-05_13:14:40 on domain   2:    1.63036 elapsed seconds
Timing for main: time 2016-02-05_13:14:53 on domain   3:     .17056 elapsed seconds
Timing for main: time 2016-02-05_13:15:06 on domain   3:     .16205 elapsed seconds
Timing for main: time 2016-02-05_13:15:20 on domain   3:     .16214 elapsed seconds
Timing for main: time 2016-02-05_13:15:00 on domain   4:     .21081 elapsed seconds
Timing for main: time 2016-02-05_13:15:20 on domain   4:     .19493 elapsed seconds
Timing for main: time 2016-02-05_13:15:20 on domain   2:    1.60098 elapsed seconds
Timing for main: time 2016-02-05_13:15:33 on domain   3:     .17306 elapsed seconds
Timing for main: time 2016-02-05_13:15:46 on domain   3:     .16372 elapsed seconds
Timing for main: time 2016-02-05_13:16:00 on domain   3:     .16208 elapsed seconds
Timing for main: time 2016-02-05_13:15:40 on domain   4:     .20490 elapsed seconds
Timing for main: time 2016-02-05_13:16:00 on domain   4:     .19157 elapsed seconds
Timing for main: time 2016-02-05_13:16:00 on domain   2:    1.59663 elapsed seconds
Timing for main: time 2016-02-05_13:16:00 on domain   1:    5.15555 elapsed seconds
Timing for main: time 2016-02-05_13:16:13 on domain   3:     .17075 elapsed seconds
Timing for main: time 2016-02-05_13:16:26 on domain   3:     .16190 elapsed seconds
Timing for main: time 2016-02-05_13:16:40 on domain   3:     .16933 elapsed seconds
Timing for main: time 2016-02-05_13:16:20 on domain   4:     .20322 elapsed seconds
Timing for main: time 2016-02-05_13:16:40 on domain   4:     .19536 elapsed seconds
Timing for main: time 2016-02-05_13:16:40 on domain   2:    1.61813 elapsed seconds
Timing for main: time 2016-02-05_13:16:53 on domain   3:     .17093 elapsed seconds
Timing for main: time 2016-02-05_13:17:06 on domain   3:     .16224 elapsed seconds
Timing for main: time 2016-02-05_13:17:20 on domain   3:     .19757 elapsed seconds
Timing for main: time 2016-02-05_13:17:00 on domain   4:     .20201 elapsed seconds
Timing for main: time 2016-02-05_13:17:20 on domain   4:     .19731 elapsed seconds
Timing for main: time 2016-02-05_13:17:20 on domain   2:    1.70073 elapsed seconds
Timing for main: time 2016-02-05_13:17:33 on domain   3:     .17047 elapsed seconds
[...]
Timing for main: time 2016-02-05_17:36:00 on domain   2:    1.60708 elapsed seconds
Timing for main: time 2016-02-05_17:36:00 on domain   1:    5.17172 elapsed seconds
Timing for main: time 2016-02-05_17:36:13 on domain   3:     .17357 elapsed seconds
Timing for main: time 2016-02-05_17:36:26 on domain   3:     .16325 elapsed seconds
Timing for main: time 2016-02-05_17:36:40 on domain   3:     .16355 elapsed seconds
Timing for main: time 2016-02-05_17:36:20 on domain   4:     .20149 elapsed seconds
Timing for main: time 2016-02-05_17:36:40 on domain   4:     .19517 elapsed seconds
Timing for main: time 2016-02-05_17:36:40 on domain   2:    1.61111 elapsed seconds
Timing for main: time 2016-02-05_17:36:53 on domain   3:     .17364 elapsed seconds
Timing for main: time 2016-02-05_17:37:06 on domain   3:     .16413 elapsed seconds
Timing for main: time 2016-02-05_17:37:20 on domain   3:     .17106 elapsed seconds
Timing for main: time 2016-02-05_17:37:00 on domain   4:     .21015 elapsed seconds
Timing for main: time 2016-02-05_17:37:20 on domain   4:     .19331 elapsed seconds
Timing for main: time 2016-02-05_17:37:20 on domain   2:    1.61238 elapsed seconds
Timing for main: time 2016-02-05_17:37:33 on domain   3:     .17367 elapsed seconds
Timing for main: time 2016-02-05_17:37:46 on domain   3:     .16366 elapsed seconds
Timing for main: time 2016-02-05_17:38:00 on domain   3:     .16394 elapsed seconds
Timing for main: time 2016-02-05_17:37:40 on domain   4:     .20203 elapsed seconds
Timing for main: time 2016-02-05_17:38:00 on domain   4:     .19502 elapsed seconds
Timing for main: time 2016-02-05_17:38:00 on domain   2:    1.59951 elapsed seconds
Timing for main: time 2016-02-05_17:38:00 on domain   1:    5.15395 elapsed seconds
Timing for main: time 2016-02-05_17:38:13 on domain   3:     .17352 elapsed seconds
Timing for main: time 2016-02-05_17:38:26 on domain   3:     .16355 elapsed seconds
Timing for main: time 2016-02-05_17:38:40 on domain   3:     .16823 elapsed seconds
Timing for main: time 2016-02-05_17:38:20 on domain   4:     .20388 elapsed seconds
Timing for main: time 2016-02-05_17:38:40 on domain   4:     .29586 elapsed seconds
Timing for main: time 2016-02-05_17:38:40 on domain   2:    1.71835 elapsed seconds
Timing for main: time 2016-02-05_17:38:53 on domain   3:     .17360 elapsed seconds
Timing for main: time 2016-02-05_17:39:06 on domain   3:     .16504 elapsed seconds
Timing for main: time 2016-02-05_17:39:20 on domain   3:     .16386 elapsed seconds
Timing for main: time 2016-02-05_17:39:00 on domain   4:     .19998 elapsed seconds
Timing for main: time 2016-02-05_17:39:20 on domain   4:     .19500 elapsed seconds
Timing for main: time 2016-02-05_17:39:20 on domain   2:    1.60241 elapsed seconds
Timing for main: time 2016-02-05_17:39:33 on domain   3:     .17432 elapsed seconds
Timing for main: time 2016-02-05_17:39:46 on domain   3:     .16728 elapsed seconds
Timing for main: time 2016-02-05_17:40:00 on domain   3:     .16238 elapsed seconds
Timing for main: time 2016-02-05_17:39:40 on domain   4:     .20258 elapsed seconds
Timing for main: time 2016-02-05_17:40:00 on domain   4:     .20839 elapsed seconds
Timing for main: time 2016-02-05_17:40:00 on domain   2:    1.61458 elapsed seconds
Timing for main: time 2016-02-05_17:40:00 on domain   1:    5.26794 elapsed seconds
Timing for main: time 2016-02-05_17:40:13 on domain   3:     .17367 elapsed seconds
Timing for main: time 2016-02-05_17:40:26 on domain   3:     .16356 elapsed seconds
Timing for main: time 2016-02-05_17:40:40 on domain   3:     .16360 elapsed seconds
Timing for main: time 2016-02-05_17:40:20 on domain   4:     .20188 elapsed seconds
Timing for main: time 2016-02-05_17:40:40 on domain   4:     .19766 elapsed seconds
Timing for main: time 2016-02-05_17:40:40 on domain   2:    1.61479 elapsed seconds
Timing for main: time 2016-02-05_17:40:53 on domain   3:     .17333 elapsed seconds
Timing for main: time 2016-02-05_17:41:06 on domain   3:     .16944 elapsed seconds
Timing for main: time 2016-02-05_17:41:20 on domain   3:     .16478 elapsed seconds
Timing for main: time 2016-02-05_17:41:00 on domain   4:     .21253 elapsed seconds
Timing for main: time 2016-02-05_17:41:20 on domain   4:     .19899 elapsed seconds
Timing for main: time 2016-02-05_17:41:20 on domain   2:    1.62786 elapsed seconds
Timing for main: time 2016-02-05_17:41:33 on domain   3:     .17370 elapsed seconds
Timing for main: time 2016-02-05_17:41:46 on domain   3:     .16317 elapsed seconds
Timing for main: time 2016-02-05_17:42:00 on domain   3:     .16358 elapsed seconds
Timing for main: time 2016-02-05_17:41:40 on domain   4:     .20189 elapsed seconds
Timing for main: time 2016-02-05_17:42:00 on domain   4:     .19485 elapsed seconds
Timing for main: time 2016-02-05_17:42:00 on domain   2:    1.59671 elapsed seconds
Timing for main: time 2016-02-05_17:42:00 on domain   1:    5.27287 elapsed seconds
Timing for main: time 2016-02-05_17:42:13 on domain   3:     .17345 elapsed seconds
Timing for main: time 2016-02-05_17:42:26 on domain   3:     .17087 elapsed seconds
Timing for main: time 2016-02-05_17:42:40 on domain   3:     .16496 elapsed seconds
Timing for main: time 2016-02-05_17:42:20 on domain   4:     .20192 elapsed seconds
Timing for main: time 2016-02-05_17:42:40 on domain   4:     .19545 elapsed seconds
Timing for main: time 2016-02-05_17:42:40 on domain   2:    1.62073 elapsed seconds
Timing for main: time 2016-02-05_17:42:53 on domain   3:     .17368 elapsed seconds
Timing for main: time 2016-02-05_17:43:06 on domain   3:     .16331 elapsed seconds
Timing for main: time 2016-02-05_17:43:20 on domain   3:     .16364 elapsed seconds
Timing for main: time 2016-02-05_17:43:00 on domain   4:     .20164 elapsed seconds
Timing for main: time 2016-02-05_17:43:20 on domain   4:     .19541 elapsed seconds
Timing for main: time 2016-02-05_17:43:20 on domain   2:    1.59741 elapsed seconds
Timing for main: time 2016-02-05_17:43:33 on domain   3:     .17402 elapsed seconds
Timing for main: time 2016-02-05_17:43:46 on domain   3:     .16342 elapsed seconds
Timing for main: time 2016-02-05_17:44:00 on domain   3:     .16383 elapsed seconds
Timing for main: time 2016-02-05_17:43:40 on domain   4:     .20256 elapsed seconds
Timing for main: time 2016-02-05_17:44:00 on domain   4:     .19498 elapsed seconds
Timing for main: time 2016-02-05_17:44:00 on domain   2:    1.59909 elapsed seconds
Timing for main: time 2016-02-05_17:44:00 on domain   1:    5.14773 elapsed seconds
Timing for main: time 2016-02-05_17:44:13 on domain   3:     .17355 elapsed seconds
Timing for main: time 2016-02-05_17:44:26 on domain   3:     .16371 elapsed seconds
Timing for main: time 2016-02-05_17:44:40 on domain   3:     .16419 elapsed seconds
Timing for main: time 2016-02-05_17:44:20 on domain   4:     .20138 elapsed seconds
Timing for main: time 2016-02-05_17:44:40 on domain   4:     .19513 elapsed seconds
Timing for main: time 2016-02-05_17:44:40 on domain   2:    1.61086 elapsed seconds
Timing for main: time 2016-02-05_17:44:53 on domain   3:     .17342 elapsed seconds
Timing for main: time 2016-02-05_17:45:06 on domain   3:     .16367 elapsed seconds
Timing for main: time 2016-02-05_17:45:20 on domain   3:     .16369 elapsed seconds
Timing for main: time 2016-02-05_17:45:00 on domain   4:     .21049 elapsed seconds
Timing for main: time 2016-02-05_17:45:20 on domain   4:     .19554 elapsed seconds
Timing for main: time 2016-02-05_17:45:20 on domain   2:    1.60626 elapsed seconds
Timing for main: time 2016-02-05_17:45:33 on domain   3:     .17355 elapsed seconds
Timing for main: time 2016-02-05_17:45:46 on domain   3:     .16371 elapsed seconds
Timing for main: time 2016-02-05_17:46:00 on domain   3:     .16720 elapsed seconds
Timing for main: time 2016-02-05_17:45:40 on domain   4:     .20282 elapsed seconds
Timing for main: time 2016-02-05_17:46:00 on domain   4:     .19539 elapsed seconds
Timing for main: time 2016-02-05_17:46:00 on domain   2:    1.60345 elapsed seconds
Timing for main: time 2016-02-05_17:46:00 on domain   1:    5.15152 elapsed seconds
Timing for main: time 2016-02-05_17:46:13 on domain   3:     .17359 elapsed seconds
Timing for main: time 2016-02-05_17:46:26 on domain   3:     .16530 elapsed seconds
Timing for main: time 2016-02-05_17:46:40 on domain   3:     .16381 elapsed seconds
Timing for main: time 2016-02-05_17:46:20 on domain   4:     .20953 elapsed seconds
Timing for main: time 2016-02-05_17:46:40 on domain   4:     .19788 elapsed seconds
Timing for main: time 2016-02-05_17:46:40 on domain   2:    1.63347 elapsed seconds
Timing for main: time 2016-02-05_17:46:53 on domain   3:     .17211 elapsed seconds
Timing for main: time 2016-02-05_17:47:06 on domain   3:     .16370 elapsed seconds
Timing for main: time 2016-02-05_17:47:20 on domain   3:     .16385 elapsed seconds
Timing for main: time 2016-02-05_17:47:00 on domain   4:     .20177 elapsed seconds
Timing for main: time 2016-02-05_17:47:20 on domain   4:     .19771 elapsed seconds
Timing for main: time 2016-02-05_17:47:20 on domain   2:    1.60072 elapsed seconds
Timing for main: time 2016-02-05_17:47:33 on domain   3:     .21344 elapsed seconds
Timing for main: time 2016-02-05_17:47:46 on domain   3:     .16660 elapsed seconds
Timing for main: time 2016-02-05_17:48:00 on domain   3:     .16317 elapsed seconds
Timing for main: time 2016-02-05_17:47:40 on domain   4:     .20178 elapsed seconds
Timing for main: time 2016-02-05_17:48:00 on domain   4:     .19545 elapsed seconds
Timing for main: time 2016-02-05_17:48:00 on domain   2:    1.64383 elapsed seconds
Timing for main: time 2016-02-05_17:48:00 on domain   1:    5.21554 elapsed seconds
Timing for main: time 2016-02-05_17:48:13 on domain   3:     .17547 elapsed seconds
Timing for main: time 2016-02-05_17:48:26 on domain   3:     .16361 elapsed seconds
Timing for main: time 2016-02-05_17:48:40 on domain   3:     .16443 elapsed seconds
Timing for main: time 2016-02-05_17:48:20 on domain   4:     .20237 elapsed seconds
Timing for main: time 2016-02-05_17:48:40 on domain   4:     .19551 elapsed seconds
Timing for main: time 2016-02-05_17:48:40 on domain   2:    1.61438 elapsed seconds
Timing for main: time 2016-02-05_17:48:53 on domain   3:     .17336 elapsed seconds
Timing for main: time 2016-02-05_17:49:06 on domain   3:     .16417 elapsed seconds
Timing for main: time 2016-02-05_17:49:20 on domain   3:     .16441 elapsed seconds
Timing for main: time 2016-02-05_17:49:00 on domain   4:     .20193 elapsed seconds
Timing for main: time 2016-02-05_17:49:20 on domain   4:     .20343 elapsed seconds
Timing for main: time 2016-02-05_17:49:20 on domain   2:    1.60784 elapsed seconds
Timing for main: time 2016-02-05_17:49:33 on domain   3:     .17374 elapsed seconds
Timing for main: time 2016-02-05_17:49:46 on domain   3:     .16369 elapsed seconds
Timing for main: time 2016-02-05_17:50:00 on domain   3:     .16342 elapsed seconds
Timing for main: time 2016-02-05_17:49:40 on domain   4:     .20209 elapsed seconds
Timing for main: time 2016-02-05_17:50:00 on domain   4:     .20541 elapsed seconds
Timing for main: time 2016-02-05_17:50:00 on domain   2:    1.62711 elapsed seconds
Timing for main: time 2016-02-05_17:50:00 on domain   1:    5.17957 elapsed seconds
Timing for main: time 2016-02-05_17:50:13 on domain   3:     .17389 elapsed seconds
Timing for main: time 2016-02-05_17:50:26 on domain   3:     .16351 elapsed seconds
Timing for main: time 2016-02-05_17:50:40 on domain   3:     .16474 elapsed seconds
Timing for main: time 2016-02-05_17:50:20 on domain   4:     .20186 elapsed seconds
Timing for main: time 2016-02-05_17:50:40 on domain   4:     .19564 elapsed seconds
Timing for main: time 2016-02-05_17:50:40 on domain   2:    1.61463 elapsed seconds
Timing for main: time 2016-02-05_17:50:53 on domain   3:     .17375 elapsed seconds
Timing for main: time 2016-02-05_17:51:06 on domain   3:     .16362 elapsed seconds
Timing for main: time 2016-02-05_17:51:20 on domain   3:     .16390 elapsed seconds
Timing for main: time 2016-02-05_17:51:00 on domain   4:     .19967 elapsed seconds
Timing for main: time 2016-02-05_17:51:20 on domain   4:     .19503 elapsed seconds
Timing for main: time 2016-02-05_17:51:20 on domain   2:    1.59859 elapsed seconds
Timing for main: time 2016-02-05_17:51:33 on domain   3:     .17398 elapsed seconds
Timing for main: time 2016-02-05_17:51:46 on domain   3:     .16398 elapsed seconds
Timing for main: time 2016-02-05_17:52:00 on domain   3:     .16363 elapsed seconds
Timing for main: time 2016-02-05_17:51:40 on domain   4:     .20119 elapsed seconds
Timing for main: time 2016-02-05_17:52:00 on domain   4:     .19534 elapsed seconds
Timing for main: time 2016-02-05_17:52:00 on domain   2:    1.60644 elapsed seconds
Timing for main: time 2016-02-05_17:52:00 on domain   1:    5.15159 elapsed seconds
Timing for main: time 2016-02-05_17:52:13 on domain   3:     .17386 elapsed seconds
Timing for main: time 2016-02-05_17:52:26 on domain   3:     .16328 elapsed seconds
Timing for main: time 2016-02-05_17:52:40 on domain   3:     .17094 elapsed seconds
Timing for main: time 2016-02-05_17:52:20 on domain   4:     .20696 elapsed seconds
Timing for main: time 2016-02-05_17:52:40 on domain   4:     .19823 elapsed seconds
Timing for main: time 2016-02-05_17:52:40 on domain   2:    1.62679 elapsed seconds
Timing for main: time 2016-02-05_17:52:53 on domain   3:     .18055 elapsed seconds
Timing for main: time 2016-02-05_17:53:06 on domain   3:     .16370 elapsed seconds
Timing for main: time 2016-02-05_17:53:20 on domain   3:     .16851 elapsed seconds
Timing for main: time 2016-02-05_17:53:00 on domain   4:     .20192 elapsed seconds
Timing for main: time 2016-02-05_17:53:20 on domain   4:     .19512 elapsed seconds
Timing for main: time 2016-02-05_17:53:20 on domain   2:    1.60911 elapsed seconds
Timing for main: time 2016-02-05_17:53:33 on domain   3:     .17357 elapsed seconds
Timing for main: time 2016-02-05_17:53:46 on domain   3:     .16346 elapsed seconds
Timing for main: time 2016-02-05_17:54:00 on domain   3:     .16364 elapsed seconds
Timing for main: time 2016-02-05_17:53:40 on domain   4:     .20195 elapsed seconds
Timing for main: time 2016-02-05_17:54:00 on domain   4:     .19508 elapsed seconds
Timing for main: time 2016-02-05_17:54:00 on domain   2:    1.59654 elapsed seconds
Timing for main: time 2016-02-05_17:54:00 on domain   1:    5.16959 elapsed seconds
Timing for main: time 2016-02-05_17:54:13 on domain   3:     .17310 elapsed seconds
Timing for main: time 2016-02-05_17:54:26 on domain   3:     .16368 elapsed seconds
Timing for main: time 2016-02-05_17:54:40 on domain   3:     .16363 elapsed seconds
Timing for main: time 2016-02-05_17:54:20 on domain   4:     .20193 elapsed seconds
Timing for main: time 2016-02-05_17:54:40 on domain   4:     .19508 elapsed seconds
Timing for main: time 2016-02-05_17:54:40 on domain   2:    1.61119 elapsed seconds
Timing for main: time 2016-02-05_17:54:53 on domain   3:     .17413 elapsed seconds
Timing for main: time 2016-02-05_17:55:06 on domain   3:     .16354 elapsed seconds
Timing for main: time 2016-02-05_17:55:20 on domain   3:     .16406 elapsed seconds
Timing for main: time 2016-02-05_17:55:00 on domain   4:     .21018 elapsed seconds
Timing for main: time 2016-02-05_17:55:20 on domain   4:     .19536 elapsed seconds
Timing for main: time 2016-02-05_17:55:20 on domain   2:    1.60663 elapsed seconds
Timing for main: time 2016-02-05_17:55:33 on domain   3:     .17382 elapsed seconds
Timing for main: time 2016-02-05_17:55:46 on domain   3:     .16411 elapsed seconds
Timing for main: time 2016-02-05_17:56:00 on domain   3:     .16308 elapsed seconds
Timing for main: time 2016-02-05_17:55:40 on domain   4:     .20204 elapsed seconds
Timing for main: time 2016-02-05_17:56:00 on domain   4:     .19678 elapsed seconds
Timing for main: time 2016-02-05_17:56:00 on domain   2:    1.59824 elapsed seconds
Timing for main: time 2016-02-05_17:56:00 on domain   1:    5.14903 elapsed seconds
Timing for main: time 2016-02-05_17:56:13 on domain   3:     .17376 elapsed seconds
Timing for main: time 2016-02-05_17:56:26 on domain   3:     .16329 elapsed seconds
Timing for main: time 2016-02-05_17:56:40 on domain   3:     .16364 elapsed seconds
Timing for main: time 2016-02-05_17:56:20 on domain   4:     .23596 elapsed seconds
Timing for main: time 2016-02-05_17:56:40 on domain   4:     .26199 elapsed seconds
Timing for main: time 2016-02-05_17:56:40 on domain   2:    1.71338 elapsed seconds
Timing for main: time 2016-02-05_17:56:53 on domain   3:     .17422 elapsed seconds
Timing for main: time 2016-02-05_17:57:06 on domain   3:     .16313 elapsed seconds
Timing for main: time 2016-02-05_17:57:20 on domain   3:     .16377 elapsed seconds
Timing for main: time 2016-02-05_17:57:00 on domain   4:     .20365 elapsed seconds
Timing for main: time 2016-02-05_17:57:20 on domain   4:     .19423 elapsed seconds
Timing for main: time 2016-02-05_17:57:20 on domain   2:    1.60692 elapsed seconds
Timing for main: time 2016-02-05_17:57:33 on domain   3:     .17364 elapsed seconds
Timing for main: time 2016-02-05_17:57:46 on domain   3:     .17279 elapsed seconds
Timing for main: time 2016-02-05_17:58:00 on domain   3:     .16579 elapsed seconds
Timing for main: time 2016-02-05_17:57:40 on domain   4:     .20349 elapsed seconds
Timing for main: time 2016-02-05_17:58:00 on domain   4:     .19726 elapsed seconds
Timing for main: time 2016-02-05_17:58:00 on domain   2:    1.61195 elapsed seconds
Timing for main: time 2016-02-05_17:58:00 on domain   1:    5.26225 elapsed seconds
  photolysis_driver: called for domain  1
Timing for main: time 2016-02-05_17:58:13 on domain   3:     .17160 elapsed seconds
Timing for main: time 2016-02-05_17:58:26 on domain   3:     .16335 elapsed seconds
Timing for main: time 2016-02-05_17:58:40 on domain   3:     .16378 elapsed seconds
Timing for main: time 2016-02-05_17:58:20 on domain   4:     .20161 elapsed seconds
Timing for main: time 2016-02-05_17:58:40 on domain   4:     .19526 elapsed seconds
Timing for main: time 2016-02-05_17:58:40 on domain   2:    1.61142 elapsed seconds
Timing for main: time 2016-02-05_17:58:53 on domain   3:     .17353 elapsed seconds
Timing for main: time 2016-02-05_17:59:06 on domain   3:     .16321 elapsed seconds
Timing for main: time 2016-02-05_17:59:20 on domain   3:     .16478 elapsed seconds
Timing for main: time 2016-02-05_17:59:00 on domain   4:     .20203 elapsed seconds
Timing for main: time 2016-02-05_17:59:20 on domain   4:     .19553 elapsed seconds
Timing for main: time 2016-02-05_17:59:20 on domain   2:    1.59800 elapsed seconds
  photolysis_driver: called for domain  2
Timing for main: time 2016-02-05_17:59:33 on domain   3:     .17339 elapsed seconds
Timing for main: time 2016-02-05_17:59:46 on domain   3:     .16334 elapsed seconds
  photolysis_driver: called for domain  3
Timing for main: time 2016-02-05_18:00:00 on domain   3:     .94135 elapsed seconds
Timing for Writing wrfout_d03_2016-02-05_18:00:00 for domain        3:    1.82308 elapsed seconds
Timing for main: time 2016-02-05_17:59:40 on domain   4:     .21376 elapsed seconds
  photolysis_driver: called for domain  4
Timing for main: time 2016-02-05_18:00:00 on domain   4:    1.09420 elapsed seconds
Timing for Writing wrfout_d04_2016-02-05_18:00:00 for domain        4:    2.05538 elapsed seconds
Timing for main: time 2016-02-05_18:00:00 on domain   2:    8.11248 elapsed seconds
Timing for Writing wrfout_d02_2016-02-05_18:00:00 for domain        2:    2.92544 elapsed seconds
Timing for main: time 2016-02-05_18:00:00 on domain   1:   15.09315 elapsed seconds
Timing for Writing wrfout_d01_2016-02-05_18:00:00 for domain        1:    2.37540 elapsed seconds
 d01 2016-02-05_18:00:00 wrf: SUCCESS COMPLETE WRF
