taskid: 0 hostname: p10a51.pbm.ihost.com
  Ntasks in X  20 , ntasks in Y  20
 Setting blank km_opt entries to domain #1 values.
  --> The km_opt entry in the namelist.input is now max_domains.
 Setting blank diff_opt entries to domain #1 values.
  --> The diff_opt entry in the namelist.input is now max_domains.
 --- WARNING: traj_opt is zero, but num_traj is not zero; setting num_traj to zero.
 --- NOTE: hypsometric_opt is 2, setting adjust_heights = F
 --- NOTE: sst_update is 0, setting io_form_auxinput4 = 0 and auxinput4_interval = 0 for all domains
 --- NOTE: sst_update is 0, setting io_form_auxinput4 = 0 and auxinput4_interval = 0 for all domains
 --- NOTE: sst_update is 0, setting io_form_auxinput4 = 0 and auxinput4_interval = 0 for all domains
 --- NOTE: sst_update is 0, setting io_form_auxinput4 = 0 and auxinput4_interval = 0 for all domains
 --- NOTE: grid_fdda is 0 for domain      1, setting gfdda interval and ending time to 0 for that domain.
 --- NOTE: both grid_sfdda and pxlsm_soil_nudge are 0 for domain      1, setting sgfdda interval and ending time to 0 for that domain.
 --- NOTE: obs_nudge_opt is 0 for domain      1, setting obs nudging interval and ending time to 0 for that domain.
 --- NOTE: grid_fdda is 0 for domain      2, setting gfdda interval and ending time to 0 for that domain.
 --- NOTE: both grid_sfdda and pxlsm_soil_nudge are 0 for domain      2, setting sgfdda interval and ending time to 0 for that domain.
 --- NOTE: obs_nudge_opt is 0 for domain      2, setting obs nudging interval and ending time to 0 for that domain.
 --- NOTE: grid_fdda is 0 for domain      3, setting gfdda interval and ending time to 0 for that domain.
 --- NOTE: both grid_sfdda and pxlsm_soil_nudge are 0 for domain      3, setting sgfdda interval and ending time to 0 for that domain.
 --- NOTE: obs_nudge_opt is 0 for domain      3, setting obs nudging interval and ending time to 0 for that domain.
 --- NOTE: grid_fdda is 0 for domain      4, setting gfdda interval and ending time to 0 for that domain.
 --- NOTE: both grid_sfdda and pxlsm_soil_nudge are 0 for domain      4, setting sgfdda interval and ending time to 0 for that domain.
 --- NOTE: obs_nudge_opt is 0 for domain      4, setting obs nudging interval and ending time to 0 for that domain.
 bl_pbl_physics /= 4, implies mfshconv must be 0, resetting
 --- NOTE: num_soil_layers has been set to      4
 WRF V3.6 MODEL
  *************************************
  Parent domain
  ids,ide,jds,jde  1 271 1 181
  ims,ime,jms,jme  -4 21 -4 16
  ips,ipe,jps,jpe  1 14 1 9
  *************************************
 DYNAMICS OPTION: Eulerian Mass Coordinate
    alloc_space_field: domain  1 ,  57211468  bytes allocated
   med_initialdata_input: calling input_input
Timing for processing wrfinput file (stream 0) for domain        1:   13.80833 elapsed seconds
 INPUT LandUse = "USGS"
  LANDUSE TYPE = "USGS" FOUND 33  CATEGORIES 2  SEASONS WATER CATEGORY =  16  SNOW CATEGORY =  24
 INITIALIZE THREE Noah LSM RELATED TABLES
  LANDUSE TYPE = USGS FOUND 27  CATEGORIES
  INPUT SOIL TEXTURE CLASSIFICATION = STAS
  SOIL TEXTURE CLASSIFICATION = STAS FOUND 19  CATEGORIES
 *********************************************************************
 *             PROGRAM:WRF/CHEM V3.6 MODEL
 *                                                                   *
 *    PLEASE REPORT ANY BUGS TO WRF/CHEM HELP at                     *
 *                                                                   *
 *              wrfchemhelp.gsd@noaa.gov                             *
 *                                                                   *
 *********************************************************************
 WARNING: dust option 1 currently works only with the GOCART aerosol option.
 WARNING: sea salt option 1 currently works only with the GOCART aerosol option.
  *************************************
  Nesting domain
  ids,ide,jds,jde  1 361 1 253
  ims,ime,jms,jme  -4 30 -4 24
  ips,ipe,jps,jpe  1 18 1 13
  INTERMEDIATE domain
  ids,ide,jds,jde  74 199 47 136
  ims,ime,jms,jme  69 91 42 62
  ips,ipe,jps,jpe  72 81 45 52
  *************************************
 d01 2016-02-05_12:00:00  alloc_space_field: domain  2 ,  102743272  bytes allocated
 d01 2016-02-05_12:00:00  alloc_space_field: domain  2 ,  6083868  bytes allocated
 d01 2016-02-05_12:00:00 *** Initializing nest domain # 2 from an input file. ***
 d01 2016-02-05_12:00:00 med_initialdata_input: calling input_input
Timing for processing wrfinput file (stream 0) for domain        2:    6.64158 elapsed seconds
 INPUT LandUse = "USGS"
  LANDUSE TYPE = "USGS" FOUND 33  CATEGORIES 2  SEASONS WATER CATEGORY =  16  SNOW CATEGORY =  24
 INITIALIZE THREE Noah LSM RELATED TABLES
  LANDUSE TYPE = USGS FOUND 27  CATEGORIES
  INPUT SOIL TEXTURE CLASSIFICATION = STAS
  SOIL TEXTURE CLASSIFICATION = STAS FOUND 19  CATEGORIES
 *********************************************************************
 *             PROGRAM:WRF/CHEM V3.6 MODEL
 *                                                                   *
 *    PLEASE REPORT ANY BUGS TO WRF/CHEM HELP at                     *
 *                                                                   *
 *              wrfchemhelp.gsd@noaa.gov                             *
 *                                                                   *
 *********************************************************************
 WARNING: dust option 1 currently works only with the GOCART aerosol option.
 WARNING: sea salt option 1 currently works only with the GOCART aerosol option.
 INPUT LandUse = "USGS"
  LANDUSE TYPE = "USGS" FOUND 33  CATEGORIES 2  SEASONS WATER CATEGORY =  16  SNOW CATEGORY =  24
 INITIALIZE THREE Noah LSM RELATED TABLES
  LANDUSE TYPE = USGS FOUND 27  CATEGORIES
  INPUT SOIL TEXTURE CLASSIFICATION = STAS
  SOIL TEXTURE CLASSIFICATION = STAS FOUND 19  CATEGORIES
 *********************************************************************
 *             PROGRAM:WRF/CHEM V3.6 MODEL
 *                                                                   *
 *    PLEASE REPORT ANY BUGS TO WRF/CHEM HELP at                     *
 *                                                                   *
 *              wrfchemhelp.gsd@noaa.gov                             *
 *                                                                   *
 *********************************************************************
 WARNING: dust option 1 currently works only with the GOCART aerosol option.
 WARNING: sea salt option 1 currently works only with the GOCART aerosol option.
 INPUT LandUse = "USGS"
  LANDUSE TYPE = "USGS" FOUND 33  CATEGORIES 2  SEASONS WATER CATEGORY =  16  SNOW CATEGORY =  24
 INITIALIZE THREE Noah LSM RELATED TABLES
  LANDUSE TYPE = USGS FOUND 27  CATEGORIES
  INPUT SOIL TEXTURE CLASSIFICATION = STAS
  SOIL TEXTURE CLASSIFICATION = STAS FOUND 19  CATEGORIES
 *********************************************************************
 *             PROGRAM:WRF/CHEM V3.6 MODEL
 *                                                                   *
 *    PLEASE REPORT ANY BUGS TO WRF/CHEM HELP at                     *
 *                                                                   *
 *              wrfchemhelp.gsd@noaa.gov                             *
 *                                                                   *
 *********************************************************************
 WARNING: dust option 1 currently works only with the GOCART aerosol option.
 WARNING: sea salt option 1 currently works only with the GOCART aerosol option.
Timing for Writing wrfout_d01_2016-02-05_12:00:00 for domain        1:    2.46304 elapsed seconds
  mediation_integrate: med_read_wrf_chem_emissions: Open file wrfchemi_12z_d01
  HOURLY EMISSIONS UPDATE TIME         .0        .0
 mediation_integrate: med_read_wrf_chem_emissions: Read emissions for time 2016-02-05_12:00:00
 **WARNING** Time in input file not being checked **WARNING**
Timing for processing lateral boundary for domain        1:    3.42387 elapsed seconds
  Tile Strategy is not specified. Assuming 1D-Y
 WRF TILE   1 IS      1 IE     14 JS      1 JE      9
 WRF NUMBER OF TILES =   1
  photolysis_driver: called for domain  1
  *************************************
  Nesting domain
  ids,ide,jds,jde  1 307 1 241
  ims,ime,jms,jme  -4 27 -4 24
  ips,ipe,jps,jpe  1 16 1 12
  INTERMEDIATE domain
  ids,ide,jds,jde  124 231 35 120
  ims,ime,jms,jme  119 140 30 50
  ips,ipe,jps,jpe  122 130 33 40
  *************************************
 d02 2016-02-05_12:00:00  alloc_space_field: domain  3 ,  94276368  bytes allocated
 d02 2016-02-05_12:00:00  alloc_space_field: domain  3 ,  5819352  bytes allocated
 d02 2016-02-05_12:00:00 *** Initializing nest domain # 3 from an input file. ***
 d02 2016-02-05_12:00:00 med_initialdata_input: calling input_input
Timing for processing wrfinput file (stream 0) for domain        3:    5.53410 elapsed seconds
 INPUT LandUse = "USGS"
  LANDUSE TYPE = "USGS" FOUND 33  CATEGORIES 2  SEASONS WATER CATEGORY =  16  SNOW CATEGORY =  24
 INITIALIZE THREE Noah LSM RELATED TABLES
  LANDUSE TYPE = USGS FOUND 27  CATEGORIES
  INPUT SOIL TEXTURE CLASSIFICATION = STAS
  SOIL TEXTURE CLASSIFICATION = STAS FOUND 19  CATEGORIES
 *********************************************************************
 *             PROGRAM:WRF/CHEM V3.6 MODEL
 *                                                                   *
 *    PLEASE REPORT ANY BUGS TO WRF/CHEM HELP at                     *
 *                                                                   *
 *              wrfchemhelp.gsd@noaa.gov                             *
 *                                                                   *
 *********************************************************************
 WARNING: dust option 1 currently works only with the GOCART aerosol option.
 WARNING: sea salt option 1 currently works only with the GOCART aerosol option.
 INPUT LandUse = "USGS"
  LANDUSE TYPE = "USGS" FOUND 33  CATEGORIES 2  SEASONS WATER CATEGORY =  16  SNOW CATEGORY =  24
 INITIALIZE THREE Noah LSM RELATED TABLES
  LANDUSE TYPE = USGS FOUND 27  CATEGORIES
  INPUT SOIL TEXTURE CLASSIFICATION = STAS
  SOIL TEXTURE CLASSIFICATION = STAS FOUND 19  CATEGORIES
 *********************************************************************
 *             PROGRAM:WRF/CHEM V3.6 MODEL
 *                                                                   *
 *    PLEASE REPORT ANY BUGS TO WRF/CHEM HELP at                     *
 *                                                                   *
 *              wrfchemhelp.gsd@noaa.gov                             *
 *                                                                   *
 *********************************************************************
 WARNING: dust option 1 currently works only with the GOCART aerosol option.
 WARNING: sea salt option 1 currently works only with the GOCART aerosol option.
 INPUT LandUse = "USGS"
  LANDUSE TYPE = "USGS" FOUND 33  CATEGORIES 2  SEASONS WATER CATEGORY =  16  SNOW CATEGORY =  24
 INITIALIZE THREE Noah LSM RELATED TABLES
  LANDUSE TYPE = USGS FOUND 27  CATEGORIES
  INPUT SOIL TEXTURE CLASSIFICATION = STAS
  SOIL TEXTURE CLASSIFICATION = STAS FOUND 19  CATEGORIES
 *********************************************************************
 *             PROGRAM:WRF/CHEM V3.6 MODEL
 *                                                                   *
 *    PLEASE REPORT ANY BUGS TO WRF/CHEM HELP at                     *
 *                                                                   *
 *              wrfchemhelp.gsd@noaa.gov                             *
 *                                                                   *
 *********************************************************************
 WARNING: dust option 1 currently works only with the GOCART aerosol option.
 WARNING: sea salt option 1 currently works only with the GOCART aerosol option.
  *************************************
  Nesting domain
  ids,ide,jds,jde  1 217 1 388
  ims,ime,jms,jme  -4 21 -4 30
  ips,ipe,jps,jpe  1 11 1 20
  INTERMEDIATE domain
  ids,ide,jds,jde  225 302 83 217
  ims,ime,jms,jme  220 240 78 101
  ips,ipe,jps,jpe  223 230 81 91
  *************************************
 d02 2016-02-05_12:00:00  alloc_space_field: domain  4 ,  92704520  bytes allocated
 d02 2016-02-05_12:00:00 *** Initializing nest domain # 4 from an input file. ***
 d02 2016-02-05_12:00:00 med_initialdata_input: calling input_input
Timing for processing wrfinput file (stream 0) for domain        4:    6.49703 elapsed seconds
 INPUT LandUse = "USGS"
  LANDUSE TYPE = "USGS" FOUND 33  CATEGORIES 2  SEASONS WATER CATEGORY =  16  SNOW CATEGORY =  24
 INITIALIZE THREE Noah LSM RELATED TABLES
  LANDUSE TYPE = USGS FOUND 27  CATEGORIES
  INPUT SOIL TEXTURE CLASSIFICATION = STAS
  SOIL TEXTURE CLASSIFICATION = STAS FOUND 19  CATEGORIES
 *********************************************************************
 *             PROGRAM:WRF/CHEM V3.6 MODEL
 *                                                                   *
 *    PLEASE REPORT ANY BUGS TO WRF/CHEM HELP at                     *
 *                                                                   *
 *              wrfchemhelp.gsd@noaa.gov                             *
 *                                                                   *
 *********************************************************************
 WARNING: dust option 1 currently works only with the GOCART aerosol option.
 WARNING: sea salt option 1 currently works only with the GOCART aerosol option.
 INPUT LandUse = "USGS"
  LANDUSE TYPE = "USGS" FOUND 33  CATEGORIES 2  SEASONS WATER CATEGORY =  16  SNOW CATEGORY =  24
 INITIALIZE THREE Noah LSM RELATED TABLES
  LANDUSE TYPE = USGS FOUND 27  CATEGORIES
  INPUT SOIL TEXTURE CLASSIFICATION = STAS
  SOIL TEXTURE CLASSIFICATION = STAS FOUND 19  CATEGORIES
 *********************************************************************
 *             PROGRAM:WRF/CHEM V3.6 MODEL
 *                                                                   *
 *    PLEASE REPORT ANY BUGS TO WRF/CHEM HELP at                     *
 *                                                                   *
 *              wrfchemhelp.gsd@noaa.gov                             *
 *                                                                   *
 *********************************************************************
 WARNING: dust option 1 currently works only with the GOCART aerosol option.
 WARNING: sea salt option 1 currently works only with the GOCART aerosol option.
 INPUT LandUse = "USGS"
  LANDUSE TYPE = "USGS" FOUND 33  CATEGORIES 2  SEASONS WATER CATEGORY =  16  SNOW CATEGORY =  24
 INITIALIZE THREE Noah LSM RELATED TABLES
  LANDUSE TYPE = USGS FOUND 27  CATEGORIES
  INPUT SOIL TEXTURE CLASSIFICATION = STAS
  SOIL TEXTURE CLASSIFICATION = STAS FOUND 19  CATEGORIES
 *********************************************************************
 *             PROGRAM:WRF/CHEM V3.6 MODEL
 *                                                                   *
 *    PLEASE REPORT ANY BUGS TO WRF/CHEM HELP at                     *
 *                                                                   *
 *              wrfchemhelp.gsd@noaa.gov                             *
 *                                                                   *
 *********************************************************************
 WARNING: dust option 1 currently works only with the GOCART aerosol option.
 WARNING: sea salt option 1 currently works only with the GOCART aerosol option.
Timing for Writing wrfout_d02_2016-02-05_12:00:00 for domain        2:    2.72991 elapsed seconds
  mediation_integrate: med_read_wrf_chem_emissions: Open file wrfchemi_12z_d02
  HOURLY EMISSIONS UPDATE TIME         .0        .0
 mediation_integrate: med_read_wrf_chem_emissions: Read emissions for time 2016-02-05_12:00:00
 **WARNING** Time in input file not being checked **WARNING**
  Tile Strategy is not specified. Assuming 1D-Y
 WRF TILE   1 IS      1 IE     18 JS      1 JE     13
 WRF NUMBER OF TILES =   1
  photolysis_driver: called for domain  2
Timing for Writing wrfout_d03_2016-02-05_12:00:00 for domain        3:    2.57323 elapsed seconds
  mediation_integrate: med_read_wrf_chem_emissions: Open file wrfchemi_12z_d03
  HOURLY EMISSIONS UPDATE TIME         .0        .0
 mediation_integrate: med_read_wrf_chem_emissions: Read emissions for time 2016-02-05_12:00:00
 **WARNING** Time in input file not being checked **WARNING**
  Tile Strategy is not specified. Assuming 1D-Y
 WRF TILE   1 IS      1 IE     16 JS      1 JE     12
 WRF NUMBER OF TILES =   1
  photolysis_driver: called for domain  3
Timing for main: time 2016-02-05_12:00:13 on domain   3:    5.04799 elapsed seconds
Timing for main: time 2016-02-05_12:00:26 on domain   3:     .07983 elapsed seconds
Timing for main: time 2016-02-05_12:00:40 on domain   3:     .09303 elapsed seconds
Timing for Writing wrfout_d04_2016-02-05_12:00:00 for domain        4:    2.73365 elapsed seconds
  mediation_integrate: med_read_wrf_chem_emissions: Open file wrfchemi_12z_d04
  HOURLY EMISSIONS UPDATE TIME         .0        .0
 mediation_integrate: med_read_wrf_chem_emissions: Read emissions for time 2016-02-05_12:00:00
 **WARNING** Time in input file not being checked **WARNING**
  Tile Strategy is not specified. Assuming 1D-Y
 WRF TILE   1 IS      1 IE     11 JS      1 JE     20
 WRF NUMBER OF TILES =   1
  photolysis_driver: called for domain  4
Timing for main: time 2016-02-05_12:00:20 on domain   4:    5.43393 elapsed seconds
Timing for main: time 2016-02-05_12:00:40 on domain   4:     .10122 elapsed seconds
Timing for main: time 2016-02-05_12:00:40 on domain   2:   41.77526 elapsed seconds
Timing for main: time 2016-02-05_12:00:53 on domain   3:     .10239 elapsed seconds
Timing for main: time 2016-02-05_12:01:06 on domain   3:     .09060 elapsed seconds
Timing for main: time 2016-02-05_12:01:20 on domain   3:     .09455 elapsed seconds
Timing for main: time 2016-02-05_12:01:00 on domain   4:     .12641 elapsed seconds
Timing for main: time 2016-02-05_12:01:20 on domain   4:     .11242 elapsed seconds
Timing for main: time 2016-02-05_12:01:20 on domain   2:    1.02952 elapsed seconds
Timing for main: time 2016-02-05_12:01:33 on domain   3:     .10090 elapsed seconds
Timing for main: time 2016-02-05_12:01:46 on domain   3:     .09066 elapsed seconds
Timing for main: time 2016-02-05_12:02:00 on domain   3:     .09139 elapsed seconds
Timing for main: time 2016-02-05_12:01:40 on domain   4:     .12618 elapsed seconds
Timing for main: time 2016-02-05_12:02:00 on domain   4:     .11320 elapsed seconds
Timing for main: time 2016-02-05_12:02:00 on domain   2:    1.05087 elapsed seconds
Timing for main: time 2016-02-05_12:02:00 on domain   1:   65.59901 elapsed seconds
Timing for main: time 2016-02-05_12:02:13 on domain   3:     .11040 elapsed seconds
Timing for main: time 2016-02-05_12:02:26 on domain   3:     .09075 elapsed seconds
Timing for main: time 2016-02-05_12:02:40 on domain   3:     .09280 elapsed seconds
Timing for main: time 2016-02-05_12:02:20 on domain   4:     .12521 elapsed seconds
Timing for main: time 2016-02-05_12:02:40 on domain   4:     .11344 elapsed seconds
Timing for main: time 2016-02-05_12:02:40 on domain   2:    1.04830 elapsed seconds
Timing for main: time 2016-02-05_12:02:53 on domain   3:     .10111 elapsed seconds
Timing for main: time 2016-02-05_12:03:06 on domain   3:     .09356 elapsed seconds
Timing for main: time 2016-02-05_12:03:20 on domain   3:     .09238 elapsed seconds
Timing for main: time 2016-02-05_12:03:00 on domain   4:     .12998 elapsed seconds
Timing for main: time 2016-02-05_12:03:20 on domain   4:     .10882 elapsed seconds
Timing for main: time 2016-02-05_12:03:20 on domain   2:    1.04521 elapsed seconds
Timing for main: time 2016-02-05_12:03:33 on domain   3:     .10240 elapsed seconds
Timing for main: time 2016-02-05_12:03:46 on domain   3:     .09157 elapsed seconds
Timing for main: time 2016-02-05_12:04:00 on domain   3:     .09192 elapsed seconds
Timing for main: time 2016-02-05_12:03:40 on domain   4:     .12593 elapsed seconds
Timing for main: time 2016-02-05_12:04:00 on domain   4:     .12530 elapsed seconds
Timing for main: time 2016-02-05_12:04:00 on domain   2:    1.05698 elapsed seconds
Timing for main: time 2016-02-05_12:04:00 on domain   1:    3.42031 elapsed seconds
Timing for main: time 2016-02-05_12:04:13 on domain   3:     .10288 elapsed seconds
Timing for main: time 2016-02-05_12:04:26 on domain   3:     .09279 elapsed seconds
Timing for main: time 2016-02-05_12:04:40 on domain   3:     .09022 elapsed seconds
Timing for main: time 2016-02-05_12:04:20 on domain   4:     .12623 elapsed seconds
Timing for main: time 2016-02-05_12:04:40 on domain   4:     .11295 elapsed seconds
Timing for main: time 2016-02-05_12:04:40 on domain   2:    1.04023 elapsed seconds
Timing for main: time 2016-02-05_12:04:53 on domain   3:     .10299 elapsed seconds
Timing for main: time 2016-02-05_12:05:06 on domain   3:     .09546 elapsed seconds
Timing for main: time 2016-02-05_12:05:20 on domain   3:     .09039 elapsed seconds
Timing for main: time 2016-02-05_12:05:00 on domain   4:     .12967 elapsed seconds
Timing for main: time 2016-02-05_12:05:20 on domain   4:     .11311 elapsed seconds
Timing for main: time 2016-02-05_12:05:20 on domain   2:    1.07238 elapsed seconds
Timing for main: time 2016-02-05_12:05:33 on domain   3:     .10302 elapsed seconds
Timing for main: time 2016-02-05_12:05:46 on domain   3:     .09103 elapsed seconds
Timing for main: time 2016-02-05_12:06:00 on domain   3:     .09186 elapsed seconds
Timing for main: time 2016-02-05_12:05:40 on domain   4:     .12666 elapsed seconds
Timing for main: time 2016-02-05_12:06:00 on domain   4:     .11856 elapsed seconds
Timing for main: time 2016-02-05_12:06:00 on domain   2:    1.05338 elapsed seconds
Timing for main: time 2016-02-05_12:06:00 on domain   1:    3.45150 elapsed seconds
Timing for main: time 2016-02-05_12:06:13 on domain   3:     .10210 elapsed seconds
Timing for main: time 2016-02-05_12:06:26 on domain   3:     .09185 elapsed seconds
Timing for main: time 2016-02-05_12:06:40 on domain   3:     .09199 elapsed seconds
Timing for main: time 2016-02-05_12:06:20 on domain   4:     .14462 elapsed seconds
Timing for main: time 2016-02-05_12:06:40 on domain   4:     .13898 elapsed seconds
Timing for main: time 2016-02-05_12:06:40 on domain   2:    1.13841 elapsed seconds
Timing for main: time 2016-02-05_12:06:53 on domain   3:     .10364 elapsed seconds
Timing for main: time 2016-02-05_12:07:06 on domain   3:     .09131 elapsed seconds
Timing for main: time 2016-02-05_12:07:20 on domain   3:     .09141 elapsed seconds
Timing for main: time 2016-02-05_12:07:00 on domain   4:     .12650 elapsed seconds
Timing for main: time 2016-02-05_12:07:20 on domain   4:     .11285 elapsed seconds
Timing for main: time 2016-02-05_12:07:20 on domain   2:    1.05317 elapsed seconds
Timing for main: time 2016-02-05_12:07:33 on domain   3:     .10700 elapsed seconds
Timing for main: time 2016-02-05_12:07:46 on domain   3:     .09328 elapsed seconds
Timing for main: time 2016-02-05_12:08:00 on domain   3:     .09256 elapsed seconds
Timing for main: time 2016-02-05_12:07:40 on domain   4:     .12666 elapsed seconds
Timing for main: time 2016-02-05_12:08:00 on domain   4:     .11339 elapsed seconds
Timing for main: time 2016-02-05_12:08:00 on domain   2:    1.05077 elapsed seconds
Timing for main: time 2016-02-05_12:08:00 on domain   1:    3.59724 elapsed seconds
Timing for main: time 2016-02-05_12:08:13 on domain   3:     .10393 elapsed seconds
Timing for main: time 2016-02-05_12:08:26 on domain   3:     .09182 elapsed seconds
Timing for main: time 2016-02-05_12:08:40 on domain   3:     .09210 elapsed seconds
Timing for main: time 2016-02-05_12:08:20 on domain   4:     .12637 elapsed seconds
Timing for main: time 2016-02-05_12:08:40 on domain   4:     .11388 elapsed seconds
Timing for main: time 2016-02-05_12:08:40 on domain   2:    1.04923 elapsed seconds
Timing for main: time 2016-02-05_12:08:53 on domain   3:     .10218 elapsed seconds
Timing for main: time 2016-02-05_12:09:06 on domain   3:     .09204 elapsed seconds
Timing for main: time 2016-02-05_12:09:20 on domain   3:     .09331 elapsed seconds
Timing for main: time 2016-02-05_12:09:00 on domain   4:     .12679 elapsed seconds
Timing for main: time 2016-02-05_12:09:20 on domain   4:     .11948 elapsed seconds
Timing for main: time 2016-02-05_12:09:20 on domain   2:    1.05602 elapsed seconds
Timing for main: time 2016-02-05_12:09:33 on domain   3:     .10212 elapsed seconds
Timing for main: time 2016-02-05_12:09:46 on domain   3:     .09227 elapsed seconds
Timing for main: time 2016-02-05_12:10:00 on domain   3:     .09425 elapsed seconds
Timing for main: time 2016-02-05_12:09:40 on domain   4:     .12669 elapsed seconds
Timing for main: time 2016-02-05_12:10:00 on domain   4:     .11666 elapsed seconds
Timing for main: time 2016-02-05_12:10:00 on domain   2:    1.05078 elapsed seconds
Timing for main: time 2016-02-05_12:10:00 on domain   1:    3.44267 elapsed seconds
Timing for main: time 2016-02-05_12:10:13 on domain   3:     .10629 elapsed seconds
Timing for main: time 2016-02-05_12:10:26 on domain   3:     .08951 elapsed seconds
Timing for main: time 2016-02-05_12:10:40 on domain   3:     .09230 elapsed seconds
Timing for main: time 2016-02-05_12:10:20 on domain   4:     .12608 elapsed seconds
Timing for main: time 2016-02-05_12:10:40 on domain   4:     .11467 elapsed seconds
Timing for main: time 2016-02-05_12:10:40 on domain   2:    1.07380 elapsed seconds
Timing for main: time 2016-02-05_12:10:53 on domain   3:     .10230 elapsed seconds
Timing for main: time 2016-02-05_12:11:06 on domain   3:     .09118 elapsed seconds
Timing for main: time 2016-02-05_12:11:20 on domain   3:     .09510 elapsed seconds
Timing for main: time 2016-02-05_12:11:00 on domain   4:     .12584 elapsed seconds
Timing for main: time 2016-02-05_12:11:20 on domain   4:     .11371 elapsed seconds
Timing for main: time 2016-02-05_12:11:20 on domain   2:    1.05101 elapsed seconds
Timing for main: time 2016-02-05_12:11:33 on domain   3:     .10245 elapsed seconds
Timing for main: time 2016-02-05_12:11:46 on domain   3:     .09179 elapsed seconds
Timing for main: time 2016-02-05_12:12:00 on domain   3:     .09121 elapsed seconds
Timing for main: time 2016-02-05_12:11:40 on domain   4:     .12663 elapsed seconds
Timing for main: time 2016-02-05_12:12:00 on domain   4:     .11355 elapsed seconds
Timing for main: time 2016-02-05_12:12:00 on domain   2:    1.06796 elapsed seconds
Timing for main: time 2016-02-05_12:12:00 on domain   1:    3.47570 elapsed seconds
Timing for main: time 2016-02-05_12:12:13 on domain   3:     .10259 elapsed seconds
Timing for main: time 2016-02-05_12:12:26 on domain   3:     .08930 elapsed seconds
Timing for main: time 2016-02-05_12:12:40 on domain   3:     .09304 elapsed seconds
Timing for main: time 2016-02-05_12:12:20 on domain   4:     .12657 elapsed seconds
Timing for main: time 2016-02-05_12:12:40 on domain   4:     .11581 elapsed seconds
Timing for main: time 2016-02-05_12:12:40 on domain   2:    1.05299 elapsed seconds
Timing for main: time 2016-02-05_12:12:53 on domain   3:     .11234 elapsed seconds
Timing for main: time 2016-02-05_12:13:06 on domain   3:     .09032 elapsed seconds
Timing for main: time 2016-02-05_12:13:20 on domain   3:     .09131 elapsed seconds
Timing for main: time 2016-02-05_12:13:00 on domain   4:     .12669 elapsed seconds
Timing for main: time 2016-02-05_12:13:20 on domain   4:     .11350 elapsed seconds
Timing for main: time 2016-02-05_12:13:20 on domain   2:    1.07615 elapsed seconds
Timing for main: time 2016-02-05_12:13:33 on domain   3:     .10223 elapsed seconds
Timing for main: time 2016-02-05_12:13:46 on domain   3:     .09043 elapsed seconds
Timing for main: time 2016-02-05_12:14:00 on domain   3:     .09210 elapsed seconds
Timing for main: time 2016-02-05_12:13:40 on domain   4:     .12652 elapsed seconds
Timing for main: time 2016-02-05_12:14:00 on domain   4:     .11388 elapsed seconds
Timing for main: time 2016-02-05_12:14:00 on domain   2:    1.04506 elapsed seconds
Timing for main: time 2016-02-05_12:14:00 on domain   1:    3.47769 elapsed seconds
Timing for main: time 2016-02-05_12:14:13 on domain   3:     .10230 elapsed seconds
Timing for main: time 2016-02-05_12:14:26 on domain   3:     .09274 elapsed seconds
Timing for main: time 2016-02-05_12:14:40 on domain   3:     .10406 elapsed seconds
Timing for main: time 2016-02-05_12:14:20 on domain   4:     .12635 elapsed seconds
Timing for main: time 2016-02-05_12:14:40 on domain   4:     .11232 elapsed seconds
Timing for main: time 2016-02-05_12:14:40 on domain   2:    1.05693 elapsed seconds
Timing for main: time 2016-02-05_12:14:53 on domain   3:     .10274 elapsed seconds
Timing for main: time 2016-02-05_12:15:06 on domain   3:     .09140 elapsed seconds
Timing for main: time 2016-02-05_12:15:20 on domain   3:     .09516 elapsed seconds
Timing for main: time 2016-02-05_12:15:00 on domain   4:     .13134 elapsed seconds
Timing for main: time 2016-02-05_12:15:20 on domain   4:     .11225 elapsed seconds
Timing for main: time 2016-02-05_12:15:20 on domain   2:    1.05306 elapsed seconds
Timing for main: time 2016-02-05_12:15:33 on domain   3:     .10197 elapsed seconds
Timing for main: time 2016-02-05_12:15:46 on domain   3:     .09204 elapsed seconds
Timing for main: time 2016-02-05_12:16:00 on domain   3:     .09157 elapsed seconds
Timing for main: time 2016-02-05_12:15:40 on domain   4:     .12633 elapsed seconds
Timing for main: time 2016-02-05_12:16:00 on domain   4:     .11250 elapsed seconds
Timing for main: time 2016-02-05_12:16:00 on domain   2:    1.04987 elapsed seconds
Timing for main: time 2016-02-05_12:16:00 on domain   1:    3.43914 elapsed seconds
Timing for main: time 2016-02-05_12:16:13 on domain   3:     .10610 elapsed seconds
Timing for main: time 2016-02-05_12:16:26 on domain   3:     .10493 elapsed seconds
Timing for main: time 2016-02-05_12:16:40 on domain   3:     .12514 elapsed seconds
Timing for main: time 2016-02-05_12:16:20 on domain   4:     .12690 elapsed seconds
Timing for main: time 2016-02-05_12:16:40 on domain   4:     .11325 elapsed seconds
Timing for main: time 2016-02-05_12:16:40 on domain   2:    1.09134 elapsed seconds
Timing for main: time 2016-02-05_12:16:53 on domain   3:     .10279 elapsed seconds
Timing for main: time 2016-02-05_12:17:06 on domain   3:     .08979 elapsed seconds
Timing for main: time 2016-02-05_12:17:20 on domain   3:     .09196 elapsed seconds
Timing for main: time 2016-02-05_12:17:00 on domain   4:     .12631 elapsed seconds
Timing for main: time 2016-02-05_12:17:20 on domain   4:     .11361 elapsed seconds
Timing for main: time 2016-02-05_12:17:20 on domain   2:    1.04428 elapsed seconds
Timing for main: time 2016-02-05_12:17:33 on domain   3:     .10342 elapsed seconds
Timing for main: time 2016-02-05_12:17:46 on domain   3:     .09154 elapsed seconds
Timing for main: time 2016-02-05_12:18:00 on domain   3:     .09239 elapsed seconds
Timing for main: time 2016-02-05_12:17:40 on domain   4:     .12665 elapsed seconds
Timing for main: time 2016-02-05_12:18:00 on domain   4:     .11448 elapsed seconds
Timing for main: time 2016-02-05_12:18:00 on domain   2:    1.04795 elapsed seconds
Timing for main: time 2016-02-05_12:18:00 on domain   1:    3.46533 elapsed seconds
Timing for main: time 2016-02-05_12:18:13 on domain   3:     .10397 elapsed seconds
Timing for main: time 2016-02-05_12:18:26 on domain   3:     .08900 elapsed seconds
Timing for main: time 2016-02-05_12:18:40 on domain   3:     .09255 elapsed seconds
Timing for main: time 2016-02-05_12:18:20 on domain   4:     .12677 elapsed seconds
Timing for main: time 2016-02-05_12:18:40 on domain   4:     .11399 elapsed seconds
Timing for main: time 2016-02-05_12:18:40 on domain   2:    1.04273 elapsed seconds
Timing for main: time 2016-02-05_12:18:53 on domain   3:     .10355 elapsed seconds
Timing for main: time 2016-02-05_12:19:06 on domain   3:     .09079 elapsed seconds
Timing for main: time 2016-02-05_12:19:20 on domain   3:     .09138 elapsed seconds
Timing for main: time 2016-02-05_12:19:00 on domain   4:     .12625 elapsed seconds
Timing for main: time 2016-02-05_12:19:20 on domain   4:     .11414 elapsed seconds
Timing for main: time 2016-02-05_12:19:20 on domain   2:    1.04420 elapsed seconds
Timing for main: time 2016-02-05_12:19:33 on domain   3:     .10499 elapsed seconds
Timing for main: time 2016-02-05_12:19:46 on domain   3:     .09296 elapsed seconds
Timing for main: time 2016-02-05_12:20:00 on domain   3:     .09196 elapsed seconds
Timing for main: time 2016-02-05_12:19:40 on domain   4:     .12787 elapsed seconds
Timing for main: time 2016-02-05_12:20:00 on domain   4:     .12584 elapsed seconds
Timing for main: time 2016-02-05_12:20:00 on domain   2:    1.06236 elapsed seconds
Timing for main: time 2016-02-05_12:20:00 on domain   1:    3.42888 elapsed seconds
Timing for main: time 2016-02-05_12:20:13 on domain   3:     .10347 elapsed seconds
Timing for main: time 2016-02-05_12:20:26 on domain   3:     .09471 elapsed seconds
Timing for main: time 2016-02-05_12:20:40 on domain   3:     .09196 elapsed seconds
Timing for main: time 2016-02-05_12:20:20 on domain   4:     .12844 elapsed seconds
Timing for main: time 2016-02-05_12:20:40 on domain   4:     .11183 elapsed seconds
Timing for main: time 2016-02-05_12:20:40 on domain   2:    1.04491 elapsed seconds
Timing for main: time 2016-02-05_12:20:53 on domain   3:     .10246 elapsed seconds
Timing for main: time 2016-02-05_12:21:06 on domain   3:     .09125 elapsed seconds
Timing for main: time 2016-02-05_12:21:20 on domain   3:     .09245 elapsed seconds
Timing for main: time 2016-02-05_12:21:00 on domain   4:     .12631 elapsed seconds
Timing for main: time 2016-02-05_12:21:20 on domain   4:     .11298 elapsed seconds
Timing for main: time 2016-02-05_12:21:20 on domain   2:    1.05091 elapsed seconds
Timing for main: time 2016-02-05_12:21:33 on domain   3:     .10240 elapsed seconds
Timing for main: time 2016-02-05_12:21:46 on domain   3:     .09472 elapsed seconds
Timing for main: time 2016-02-05_12:22:00 on domain   3:     .09687 elapsed seconds
Timing for main: time 2016-02-05_12:21:40 on domain   4:     .12667 elapsed seconds
Timing for main: time 2016-02-05_12:22:00 on domain   4:     .11401 elapsed seconds
Timing for main: time 2016-02-05_12:22:00 on domain   2:    1.09958 elapsed seconds
Timing for main: time 2016-02-05_12:22:00 on domain   1:    3.47498 elapsed seconds
Timing for main: time 2016-02-05_12:22:13 on domain   3:     .10245 elapsed seconds
Timing for main: time 2016-02-05_12:22:26 on domain   3:     .09041 elapsed seconds
Timing for main: time 2016-02-05_12:22:40 on domain   3:     .09172 elapsed seconds
Timing for main: time 2016-02-05_12:22:20 on domain   4:     .12665 elapsed seconds
Timing for main: time 2016-02-05_12:22:40 on domain   4:     .11395 elapsed seconds
Timing for main: time 2016-02-05_12:22:40 on domain   2:    1.04091 elapsed seconds
Timing for main: time 2016-02-05_12:22:53 on domain   3:     .10256 elapsed seconds
Timing for main: time 2016-02-05_12:23:06 on domain   3:     .09034 elapsed seconds
Timing for main: time 2016-02-05_12:23:20 on domain   3:     .09176 elapsed seconds
Timing for main: time 2016-02-05_12:23:00 on domain   4:     .14346 elapsed seconds
Timing for main: time 2016-02-05_12:23:20 on domain   4:     .12427 elapsed seconds
Timing for main: time 2016-02-05_12:23:20 on domain   2:    1.07305 elapsed seconds
Timing for main: time 2016-02-05_12:23:33 on domain   3:     .10236 elapsed seconds
Timing for main: time 2016-02-05_12:23:46 on domain   3:     .09049 elapsed seconds
Timing for main: time 2016-02-05_12:24:00 on domain   3:     .09317 elapsed seconds
Timing for main: time 2016-02-05_12:23:40 on domain   4:     .12633 elapsed seconds
Timing for main: time 2016-02-05_12:24:00 on domain   4:     .11402 elapsed seconds
Timing for main: time 2016-02-05_12:24:00 on domain   2:    1.05066 elapsed seconds
Timing for main: time 2016-02-05_12:24:00 on domain   1:    3.44724 elapsed seconds
Timing for main: time 2016-02-05_12:24:13 on domain   3:     .10256 elapsed seconds
Timing for main: time 2016-02-05_12:24:26 on domain   3:     .09055 elapsed seconds
Timing for main: time 2016-02-05_12:24:40 on domain   3:     .09116 elapsed seconds
Timing for main: time 2016-02-05_12:24:20 on domain   4:     .12602 elapsed seconds
Timing for main: time 2016-02-05_12:24:40 on domain   4:     .11300 elapsed seconds
Timing for main: time 2016-02-05_12:24:40 on domain   2:    1.04163 elapsed seconds
Timing for main: time 2016-02-05_12:24:53 on domain   3:     .10230 elapsed seconds
Timing for main: time 2016-02-05_12:25:06 on domain   3:     .09163 elapsed seconds
Timing for main: time 2016-02-05_12:25:20 on domain   3:     .09194 elapsed seconds
Timing for main: time 2016-02-05_12:25:00 on domain   4:     .13115 elapsed seconds
Timing for main: time 2016-02-05_12:25:20 on domain   4:     .11401 elapsed seconds
Timing for main: time 2016-02-05_12:25:20 on domain   2:    1.05042 elapsed seconds
Timing for main: time 2016-02-05_12:25:33 on domain   3:     .10625 elapsed seconds
Timing for main: time 2016-02-05_12:25:46 on domain   3:     .09117 elapsed seconds
Timing for main: time 2016-02-05_12:26:00 on domain   3:     .09160 elapsed seconds
Timing for main: time 2016-02-05_12:25:40 on domain   4:     .12662 elapsed seconds
Timing for main: time 2016-02-05_12:26:00 on domain   4:     .11351 elapsed seconds
Timing for main: time 2016-02-05_12:26:00 on domain   2:    1.05235 elapsed seconds
Timing for main: time 2016-02-05_12:26:00 on domain   1:    3.42438 elapsed seconds
Timing for main: time 2016-02-05_12:26:13 on domain   3:     .10176 elapsed seconds
Timing for main: time 2016-02-05_12:26:26 on domain   3:     .09241 elapsed seconds
Timing for main: time 2016-02-05_12:26:40 on domain   3:     .09004 elapsed seconds
Timing for main: time 2016-02-05_12:26:20 on domain   4:     .12620 elapsed seconds
Timing for main: time 2016-02-05_12:26:40 on domain   4:     .11629 elapsed seconds
Timing for main: time 2016-02-05_12:26:40 on domain   2:    1.13326 elapsed seconds
Timing for main: time 2016-02-05_12:26:53 on domain   3:     .10120 elapsed seconds
Timing for main: time 2016-02-05_12:27:06 on domain   3:     .09279 elapsed seconds
Timing for main: time 2016-02-05_12:27:20 on domain   3:     .08862 elapsed seconds
Timing for main: time 2016-02-05_12:27:00 on domain   4:     .12672 elapsed seconds
Timing for main: time 2016-02-05_12:27:20 on domain   4:     .11574 elapsed seconds
Timing for main: time 2016-02-05_12:27:20 on domain   2:    1.05197 elapsed seconds
Timing for main: time 2016-02-05_12:27:33 on domain   3:     .10174 elapsed seconds
Timing for main: time 2016-02-05_12:27:46 on domain   3:     .09412 elapsed seconds
Timing for main: time 2016-02-05_12:28:00 on domain   3:     .08997 elapsed seconds
Timing for main: time 2016-02-05_12:27:40 on domain   4:     .12627 elapsed seconds
Timing for main: time 2016-02-05_12:28:00 on domain   4:     .11437 elapsed seconds
Timing for main: time 2016-02-05_12:28:00 on domain   2:    1.05527 elapsed seconds
Timing for main: time 2016-02-05_12:28:00 on domain   1:    3.52029 elapsed seconds
  photolysis_driver: called for domain  1
Timing for main: time 2016-02-05_12:28:13 on domain   3:     .10221 elapsed seconds
Timing for main: time 2016-02-05_12:28:26 on domain   3:     .09086 elapsed seconds
Timing for main: time 2016-02-05_12:28:40 on domain   3:     .09054 elapsed seconds
Timing for main: time 2016-02-05_12:28:20 on domain   4:     .12600 elapsed seconds
Timing for main: time 2016-02-05_12:28:40 on domain   4:     .11396 elapsed seconds
Timing for main: time 2016-02-05_12:28:40 on domain   2:    1.04290 elapsed seconds
Timing for main: time 2016-02-05_12:28:53 on domain   3:     .10239 elapsed seconds
Timing for main: time 2016-02-05_12:29:06 on domain   3:     .09640 elapsed seconds
Timing for main: time 2016-02-05_12:29:20 on domain   3:     .09250 elapsed seconds
Timing for main: time 2016-02-05_12:29:00 on domain   4:     .12871 elapsed seconds
Timing for main: time 2016-02-05_12:29:20 on domain   4:     .11431 elapsed seconds
Timing for main: time 2016-02-05_12:29:20 on domain   2:    1.05369 elapsed seconds
  photolysis_driver: called for domain  2
Timing for main: time 2016-02-05_12:29:33 on domain   3:     .10154 elapsed seconds
Timing for main: time 2016-02-05_12:29:46 on domain   3:     .09283 elapsed seconds
  photolysis_driver: called for domain  3
Timing for main: time 2016-02-05_12:30:00 on domain   3:     .45439 elapsed seconds
Timing for main: time 2016-02-05_12:29:40 on domain   4:     .12731 elapsed seconds
  photolysis_driver: called for domain  4
Timing for main: time 2016-02-05_12:30:00 on domain   4:     .52187 elapsed seconds
Timing for main: time 2016-02-05_12:30:00 on domain   2:    2.30811 elapsed seconds
Timing for main: time 2016-02-05_12:30:00 on domain   1:    4.94803 elapsed seconds
Timing for main: time 2016-02-05_12:30:13 on domain   3:     .17331 elapsed seconds
Timing for main: time 2016-02-05_12:30:26 on domain   3:     .09036 elapsed seconds
Timing for main: time 2016-02-05_12:30:40 on domain   3:     .09566 elapsed seconds
Timing for main: time 2016-02-05_12:30:20 on domain   4:     .20977 elapsed seconds
Timing for main: time 2016-02-05_12:30:40 on domain   4:     .14510 elapsed seconds
Timing for main: time 2016-02-05_12:30:40 on domain   2:    1.32149 elapsed seconds
Timing for main: time 2016-02-05_12:30:53 on domain   3:     .10198 elapsed seconds
Timing for main: time 2016-02-05_12:31:06 on domain   3:     .09063 elapsed seconds
Timing for main: time 2016-02-05_12:31:20 on domain   3:     .09455 elapsed seconds
Timing for main: time 2016-02-05_12:31:00 on domain   4:     .12620 elapsed seconds
Timing for main: time 2016-02-05_12:31:20 on domain   4:     .11350 elapsed seconds
Timing for main: time 2016-02-05_12:31:20 on domain   2:    1.06761 elapsed seconds
Timing for main: time 2016-02-05_12:31:33 on domain   3:     .10237 elapsed seconds
Timing for main: time 2016-02-05_12:31:46 on domain   3:     .08953 elapsed seconds
Timing for main: time 2016-02-05_12:32:00 on domain   3:     .09120 elapsed seconds
Timing for main: time 2016-02-05_12:31:40 on domain   4:     .12702 elapsed seconds
Timing for main: time 2016-02-05_12:32:00 on domain   4:     .11307 elapsed seconds
Timing for main: time 2016-02-05_12:32:00 on domain   2:    1.04799 elapsed seconds
Timing for main: time 2016-02-05_12:32:00 on domain   1:    3.78146 elapsed seconds
Timing for main: time 2016-02-05_12:32:13 on domain   3:     .10137 elapsed seconds
Timing for main: time 2016-02-05_12:32:26 on domain   3:     .08975 elapsed seconds
Timing for main: time 2016-02-05_12:32:40 on domain   3:     .09109 elapsed seconds
Timing for main: time 2016-02-05_12:32:20 on domain   4:     .12576 elapsed seconds
Timing for main: time 2016-02-05_12:32:40 on domain   4:     .11285 elapsed seconds
Timing for main: time 2016-02-05_12:32:40 on domain   2:    1.03597 elapsed seconds
Timing for main: time 2016-02-05_12:32:53 on domain   3:     .10906 elapsed seconds
Timing for main: time 2016-02-05_12:33:06 on domain   3:     .11994 elapsed seconds
Timing for main: time 2016-02-05_12:33:20 on domain   3:     .09255 elapsed seconds
Timing for main: time 2016-02-05_12:33:00 on domain   4:     .12565 elapsed seconds
Timing for main: time 2016-02-05_12:33:20 on domain   4:     .11206 elapsed seconds
Timing for main: time 2016-02-05_12:33:20 on domain   2:    1.07958 elapsed seconds
Timing for main: time 2016-02-05_12:33:33 on domain   3:     .10203 elapsed seconds
Timing for main: time 2016-02-05_12:33:46 on domain   3:     .09150 elapsed seconds
Timing for main: time 2016-02-05_12:34:00 on domain   3:     .09144 elapsed seconds
Timing for main: time 2016-02-05_12:33:40 on domain   4:     .12644 elapsed seconds
Timing for main: time 2016-02-05_12:34:00 on domain   4:     .11228 elapsed seconds
Timing for main: time 2016-02-05_12:34:00 on domain   2:    1.04240 elapsed seconds
Timing for main: time 2016-02-05_12:34:00 on domain   1:    3.43927 elapsed seconds
Timing for main: time 2016-02-05_12:34:13 on domain   3:     .10232 elapsed seconds
Timing for main: time 2016-02-05_12:34:26 on domain   3:     .09127 elapsed seconds
Timing for main: time 2016-02-05_12:34:40 on domain   3:     .08993 elapsed seconds
Timing for main: time 2016-02-05_12:34:20 on domain   4:     .12897 elapsed seconds
Timing for main: time 2016-02-05_12:34:40 on domain   4:     .11992 elapsed seconds
Timing for main: time 2016-02-05_12:34:40 on domain   2:    1.06402 elapsed seconds
Timing for main: time 2016-02-05_12:34:53 on domain   3:     .10230 elapsed seconds
Timing for main: time 2016-02-05_12:35:06 on domain   3:     .09164 elapsed seconds
Timing for main: time 2016-02-05_12:35:20 on domain   3:     .09124 elapsed seconds
Timing for main: time 2016-02-05_12:35:00 on domain   4:     .12985 elapsed seconds
Timing for main: time 2016-02-05_12:35:20 on domain   4:     .11360 elapsed seconds
Timing for main: time 2016-02-05_12:35:20 on domain   2:    1.05049 elapsed seconds
Timing for main: time 2016-02-05_12:35:33 on domain   3:     .10228 elapsed seconds
Timing for main: time 2016-02-05_12:35:46 on domain   3:     .09503 elapsed seconds
Timing for main: time 2016-02-05_12:36:00 on domain   3:     .09119 elapsed seconds
Timing for main: time 2016-02-05_12:35:40 on domain   4:     .12576 elapsed seconds
Timing for main: time 2016-02-05_12:36:00 on domain   4:     .11505 elapsed seconds
Timing for main: time 2016-02-05_12:36:00 on domain   2:    1.05686 elapsed seconds
Timing for main: time 2016-02-05_12:36:00 on domain   1:    3.45494 elapsed seconds
Timing for main: time 2016-02-05_12:36:13 on domain   3:     .10152 elapsed seconds
Timing for main: time 2016-02-05_12:36:26 on domain   3:     .09085 elapsed seconds
Timing for main: time 2016-02-05_12:36:40 on domain   3:     .10284 elapsed seconds
Timing for main: time 2016-02-05_12:36:20 on domain   4:     .12639 elapsed seconds
Timing for main: time 2016-02-05_12:36:40 on domain   4:     .11375 elapsed seconds
Timing for main: time 2016-02-05_12:36:40 on domain   2:    1.08030 elapsed seconds
Timing for main: time 2016-02-05_12:36:53 on domain   3:     .10219 elapsed seconds
Timing for main: time 2016-02-05_12:37:06 on domain   3:     .08956 elapsed seconds
Timing for main: time 2016-02-05_12:37:20 on domain   3:     .09112 elapsed seconds
Timing for main: time 2016-02-05_12:37:00 on domain   4:     .12550 elapsed seconds
Timing for main: time 2016-02-05_12:37:20 on domain   4:     .11369 elapsed seconds
Timing for main: time 2016-02-05_12:37:20 on domain   2:    1.04451 elapsed seconds
Timing for main: time 2016-02-05_12:37:33 on domain   3:     .10192 elapsed seconds
Timing for main: time 2016-02-05_12:37:46 on domain   3:     .08922 elapsed seconds
Timing for main: time 2016-02-05_12:38:00 on domain   3:     .09160 elapsed seconds
Timing for main: time 2016-02-05_12:37:40 on domain   4:     .12613 elapsed seconds
Timing for main: time 2016-02-05_12:38:00 on domain   4:     .11347 elapsed seconds
Timing for main: time 2016-02-05_12:38:00 on domain   2:    1.04172 elapsed seconds
Timing for main: time 2016-02-05_12:38:00 on domain   1:    3.44581 elapsed seconds
Timing for main: time 2016-02-05_12:38:13 on domain   3:     .10202 elapsed seconds
Timing for main: time 2016-02-05_12:38:26 on domain   3:     .08961 elapsed seconds
Timing for main: time 2016-02-05_12:38:40 on domain   3:     .09114 elapsed seconds
Timing for main: time 2016-02-05_12:38:20 on domain   4:     .12555 elapsed seconds
Timing for main: time 2016-02-05_12:38:40 on domain   4:     .11276 elapsed seconds
Timing for main: time 2016-02-05_12:38:40 on domain   2:    1.03661 elapsed seconds
Timing for main: time 2016-02-05_12:38:53 on domain   3:     .10270 elapsed seconds
Timing for main: time 2016-02-05_12:39:06 on domain   3:     .09095 elapsed seconds
Timing for main: time 2016-02-05_12:39:20 on domain   3:     .09062 elapsed seconds
Timing for main: time 2016-02-05_12:39:00 on domain   4:     .12610 elapsed seconds
Timing for main: time 2016-02-05_12:39:20 on domain   4:     .11209 elapsed seconds
Timing for main: time 2016-02-05_12:39:20 on domain   2:    1.04186 elapsed seconds
Timing for main: time 2016-02-05_12:39:33 on domain   3:     .10184 elapsed seconds
Timing for main: time 2016-02-05_12:39:46 on domain   3:     .09074 elapsed seconds
Timing for main: time 2016-02-05_12:40:00 on domain   3:     .09059 elapsed seconds
Timing for main: time 2016-02-05_12:39:40 on domain   4:     .12748 elapsed seconds
Timing for main: time 2016-02-05_12:40:00 on domain   4:     .11620 elapsed seconds
Timing for main: time 2016-02-05_12:40:00 on domain   2:    1.04723 elapsed seconds
Timing for main: time 2016-02-05_12:40:00 on domain   1:    3.40539 elapsed seconds
Timing for main: time 2016-02-05_12:40:13 on domain   3:     .10207 elapsed seconds
Timing for main: time 2016-02-05_12:40:26 on domain   3:     .09275 elapsed seconds
Timing for main: time 2016-02-05_12:40:40 on domain   3:     .09057 elapsed seconds
Timing for main: time 2016-02-05_12:40:20 on domain   4:     .12680 elapsed seconds
Timing for main: time 2016-02-05_12:40:40 on domain   4:     .11315 elapsed seconds
Timing for main: time 2016-02-05_12:40:40 on domain   2:    1.03990 elapsed seconds
Timing for main: time 2016-02-05_12:40:53 on domain   3:     .10452 elapsed seconds
Timing for main: time 2016-02-05_12:41:06 on domain   3:     .08993 elapsed seconds
Timing for main: time 2016-02-05_12:41:20 on domain   3:     .08907 elapsed seconds
Timing for main: time 2016-02-05_12:41:00 on domain   4:     .12612 elapsed seconds
Timing for main: time 2016-02-05_12:41:20 on domain   4:     .11312 elapsed seconds
Timing for main: time 2016-02-05_12:41:20 on domain   2:    1.09562 elapsed seconds
Timing for main: time 2016-02-05_12:41:33 on domain   3:     .10182 elapsed seconds
Timing for main: time 2016-02-05_12:41:46 on domain   3:     .09045 elapsed seconds
Timing for main: time 2016-02-05_12:42:00 on domain   3:     .09035 elapsed seconds
Timing for main: time 2016-02-05_12:41:40 on domain   4:     .13437 elapsed seconds
Timing for main: time 2016-02-05_12:42:00 on domain   4:     .12423 elapsed seconds
Timing for main: time 2016-02-05_12:42:00 on domain   2:    1.08126 elapsed seconds
Timing for main: time 2016-02-05_12:42:00 on domain   1:    3.50557 elapsed seconds
Timing for main: time 2016-02-05_12:42:13 on domain   3:     .10266 elapsed seconds
Timing for main: time 2016-02-05_12:42:26 on domain   3:     .09151 elapsed seconds
Timing for main: time 2016-02-05_12:42:40 on domain   3:     .09276 elapsed seconds
Timing for main: time 2016-02-05_12:42:20 on domain   4:     .12681 elapsed seconds
Timing for main: time 2016-02-05_12:42:40 on domain   4:     .11302 elapsed seconds
Timing for main: time 2016-02-05_12:42:40 on domain   2:    1.04602 elapsed seconds
Timing for main: time 2016-02-05_12:42:53 on domain   3:     .10227 elapsed seconds
Timing for main: time 2016-02-05_12:43:06 on domain   3:     .08895 elapsed seconds
Timing for main: time 2016-02-05_12:43:20 on domain   3:     .09199 elapsed seconds
Timing for main: time 2016-02-05_12:43:00 on domain   4:     .12669 elapsed seconds
Timing for main: time 2016-02-05_12:43:20 on domain   4:     .11326 elapsed seconds
Timing for main: time 2016-02-05_12:43:20 on domain   2:    1.04208 elapsed seconds
Timing for main: time 2016-02-05_12:43:33 on domain   3:     .10278 elapsed seconds
Timing for main: time 2016-02-05_12:43:46 on domain   3:     .08964 elapsed seconds
Timing for main: time 2016-02-05_12:44:00 on domain   3:     .09426 elapsed seconds
Timing for main: time 2016-02-05_12:43:40 on domain   4:     .12575 elapsed seconds
Timing for main: time 2016-02-05_12:44:00 on domain   4:     .11384 elapsed seconds
Timing for main: time 2016-02-05_12:44:00 on domain   2:    1.04572 elapsed seconds
Timing for main: time 2016-02-05_12:44:00 on domain   1:    3.41286 elapsed seconds
Timing for main: time 2016-02-05_12:44:13 on domain   3:     .10214 elapsed seconds
Timing for main: time 2016-02-05_12:44:26 on domain   3:     .08998 elapsed seconds
Timing for main: time 2016-02-05_12:44:40 on domain   3:     .09029 elapsed seconds
Timing for main: time 2016-02-05_12:44:20 on domain   4:     .13448 elapsed seconds
Timing for main: time 2016-02-05_12:44:40 on domain   4:     .11317 elapsed seconds
Timing for main: time 2016-02-05_12:44:40 on domain   2:    1.04738 elapsed seconds
Timing for main: time 2016-02-05_12:44:53 on domain   3:     .10628 elapsed seconds
Timing for main: time 2016-02-05_12:45:06 on domain   3:     .11195 elapsed seconds
Timing for main: time 2016-02-05_12:45:20 on domain   3:     .10431 elapsed seconds
Timing for main: time 2016-02-05_12:45:00 on domain   4:     .13703 elapsed seconds
Timing for main: time 2016-02-05_12:45:20 on domain   4:     .11478 elapsed seconds
Timing for main: time 2016-02-05_12:45:20 on domain   2:    1.10541 elapsed seconds
Timing for main: time 2016-02-05_12:45:33 on domain   3:     .10178 elapsed seconds
Timing for main: time 2016-02-05_12:45:46 on domain   3:     .09089 elapsed seconds
Timing for main: time 2016-02-05_12:46:00 on domain   3:     .09391 elapsed seconds
Timing for main: time 2016-02-05_12:45:40 on domain   4:     .12606 elapsed seconds
Timing for main: time 2016-02-05_12:46:00 on domain   4:     .11296 elapsed seconds
Timing for main: time 2016-02-05_12:46:00 on domain   2:    1.05924 elapsed seconds
Timing for main: time 2016-02-05_12:46:00 on domain   1:    3.49175 elapsed seconds
Timing for main: time 2016-02-05_12:46:13 on domain   3:     .10231 elapsed seconds
Timing for main: time 2016-02-05_12:46:26 on domain   3:     .08936 elapsed seconds
Timing for main: time 2016-02-05_12:46:40 on domain   3:     .08935 elapsed seconds
Timing for main: time 2016-02-05_12:46:20 on domain   4:     .12556 elapsed seconds
Timing for main: time 2016-02-05_12:46:40 on domain   4:     .11370 elapsed seconds
Timing for main: time 2016-02-05_12:46:40 on domain   2:    1.04844 elapsed seconds
Timing for main: time 2016-02-05_12:46:53 on domain   3:     .11406 elapsed seconds
Timing for main: time 2016-02-05_12:47:06 on domain   3:     .11443 elapsed seconds
Timing for main: time 2016-02-05_12:47:20 on domain   3:     .08990 elapsed seconds
Timing for main: time 2016-02-05_12:47:00 on domain   4:     .12642 elapsed seconds
Timing for main: time 2016-02-05_12:47:20 on domain   4:     .11335 elapsed seconds
Timing for main: time 2016-02-05_12:47:20 on domain   2:    1.08330 elapsed seconds
Timing for main: time 2016-02-05_12:47:33 on domain   3:     .10242 elapsed seconds
Timing for main: time 2016-02-05_12:47:46 on domain   3:     .09126 elapsed seconds
Timing for main: time 2016-02-05_12:48:00 on domain   3:     .09075 elapsed seconds
Timing for main: time 2016-02-05_12:47:40 on domain   4:     .13780 elapsed seconds
Timing for main: time 2016-02-05_12:48:00 on domain   4:     .14975 elapsed seconds
Timing for main: time 2016-02-05_12:48:00 on domain   2:    1.09663 elapsed seconds
Timing for main: time 2016-02-05_12:48:00 on domain   1:    3.51271 elapsed seconds
Timing for main: time 2016-02-05_12:48:13 on domain   3:     .10255 elapsed seconds
Timing for main: time 2016-02-05_12:48:26 on domain   3:     .09103 elapsed seconds
Timing for main: time 2016-02-05_12:48:40 on domain   3:     .10382 elapsed seconds
Timing for main: time 2016-02-05_12:48:20 on domain   4:     .12612 elapsed seconds
Timing for main: time 2016-02-05_12:48:40 on domain   4:     .11831 elapsed seconds
Timing for main: time 2016-02-05_12:48:40 on domain   2:    1.09594 elapsed seconds
Timing for main: time 2016-02-05_12:48:53 on domain   3:     .10204 elapsed seconds
Timing for main: time 2016-02-05_12:49:06 on domain   3:     .09064 elapsed seconds
Timing for main: time 2016-02-05_12:49:20 on domain   3:     .09059 elapsed seconds
Timing for main: time 2016-02-05_12:49:00 on domain   4:     .12598 elapsed seconds
Timing for main: time 2016-02-05_12:49:20 on domain   4:     .11330 elapsed seconds
Timing for main: time 2016-02-05_12:49:20 on domain   2:    1.04182 elapsed seconds
Timing for main: time 2016-02-05_12:49:33 on domain   3:     .10272 elapsed seconds
Timing for main: time 2016-02-05_12:49:46 on domain   3:     .09031 elapsed seconds
Timing for main: time 2016-02-05_12:50:00 on domain   3:     .11345 elapsed seconds
Timing for main: time 2016-02-05_12:49:40 on domain   4:     .12572 elapsed seconds
Timing for main: time 2016-02-05_12:50:00 on domain   4:     .11330 elapsed seconds
Timing for main: time 2016-02-05_12:50:00 on domain   2:    1.10492 elapsed seconds
Timing for main: time 2016-02-05_12:50:00 on domain   1:    3.53078 elapsed seconds
Timing for main: time 2016-02-05_12:50:13 on domain   3:     .10239 elapsed seconds
Timing for main: time 2016-02-05_12:50:26 on domain   3:     .09004 elapsed seconds
Timing for main: time 2016-02-05_12:50:40 on domain   3:     .09227 elapsed seconds
Timing for main: time 2016-02-05_12:50:20 on domain   4:     .12591 elapsed seconds
Timing for main: time 2016-02-05_12:50:40 on domain   4:     .11226 elapsed seconds
Timing for main: time 2016-02-05_12:50:40 on domain   2:    1.04560 elapsed seconds
Timing for main: time 2016-02-05_12:50:53 on domain   3:     .10180 elapsed seconds
Timing for main: time 2016-02-05_12:51:06 on domain   3:     .09459 elapsed seconds
Timing for main: time 2016-02-05_12:51:20 on domain   3:     .09052 elapsed seconds
Timing for main: time 2016-02-05_12:51:00 on domain   4:     .12689 elapsed seconds
Timing for main: time 2016-02-05_12:51:20 on domain   4:     .11174 elapsed seconds
Timing for main: time 2016-02-05_12:51:20 on domain   2:    1.05830 elapsed seconds
Timing for main: time 2016-02-05_12:51:33 on domain   3:     .10169 elapsed seconds
Timing for main: time 2016-02-05_12:51:46 on domain   3:     .09238 elapsed seconds
Timing for main: time 2016-02-05_12:52:00 on domain   3:     .09040 elapsed seconds
Timing for main: time 2016-02-05_12:51:40 on domain   4:     .12596 elapsed seconds
Timing for main: time 2016-02-05_12:52:00 on domain   4:     .11256 elapsed seconds
Timing for main: time 2016-02-05_12:52:00 on domain   2:    1.05037 elapsed seconds
Timing for main: time 2016-02-05_12:52:00 on domain   1:    3.43279 elapsed seconds
Timing for main: time 2016-02-05_12:52:13 on domain   3:     .10188 elapsed seconds
Timing for main: time 2016-02-05_12:52:26 on domain   3:     .10169 elapsed seconds
Timing for main: time 2016-02-05_12:52:40 on domain   3:     .09158 elapsed seconds
Timing for main: time 2016-02-05_12:52:20 on domain   4:     .12599 elapsed seconds
Timing for main: time 2016-02-05_12:52:40 on domain   4:     .11321 elapsed seconds
Timing for main: time 2016-02-05_12:52:40 on domain   2:    1.05624 elapsed seconds
Timing for main: time 2016-02-05_12:52:53 on domain   3:     .10274 elapsed seconds
Timing for main: time 2016-02-05_12:53:06 on domain   3:     .08936 elapsed seconds
Timing for main: time 2016-02-05_12:53:20 on domain   3:     .09080 elapsed seconds
Timing for main: time 2016-02-05_12:53:00 on domain   4:     .12636 elapsed seconds
Timing for main: time 2016-02-05_12:53:20 on domain   4:     .11439 elapsed seconds
Timing for main: time 2016-02-05_12:53:20 on domain   2:    1.05027 elapsed seconds
Timing for main: time 2016-02-05_12:53:33 on domain   3:     .10207 elapsed seconds
Timing for main: time 2016-02-05_12:53:46 on domain   3:     .09336 elapsed seconds
Timing for main: time 2016-02-05_12:54:00 on domain   3:     .09348 elapsed seconds
Timing for main: time 2016-02-05_12:53:40 on domain   4:     .12648 elapsed seconds
Timing for main: time 2016-02-05_12:54:00 on domain   4:     .11517 elapsed seconds
Timing for main: time 2016-02-05_12:54:00 on domain   2:    1.07830 elapsed seconds
Timing for main: time 2016-02-05_12:54:00 on domain   1:    3.46866 elapsed seconds
Timing for main: time 2016-02-05_12:54:13 on domain   3:     .10206 elapsed seconds
Timing for main: time 2016-02-05_12:54:26 on domain   3:     .09035 elapsed seconds
Timing for main: time 2016-02-05_12:54:40 on domain   3:     .09113 elapsed seconds
Timing for main: time 2016-02-05_12:54:20 on domain   4:     .12574 elapsed seconds
Timing for main: time 2016-02-05_12:54:40 on domain   4:     .10945 elapsed seconds
Timing for main: time 2016-02-05_12:54:40 on domain   2:    1.05733 elapsed seconds
Timing for main: time 2016-02-05_12:54:53 on domain   3:     .10299 elapsed seconds
Timing for main: time 2016-02-05_12:55:06 on domain   3:     .09084 elapsed seconds
Timing for main: time 2016-02-05_12:55:20 on domain   3:     .09108 elapsed seconds
Timing for main: time 2016-02-05_12:55:00 on domain   4:     .12984 elapsed seconds
Timing for main: time 2016-02-05_12:55:20 on domain   4:     .11182 elapsed seconds
Timing for main: time 2016-02-05_12:55:20 on domain   2:    1.05566 elapsed seconds
Timing for main: time 2016-02-05_12:55:33 on domain   3:     .10200 elapsed seconds
Timing for main: time 2016-02-05_12:55:46 on domain   3:     .09138 elapsed seconds
Timing for main: time 2016-02-05_12:56:00 on domain   3:     .09060 elapsed seconds
Timing for main: time 2016-02-05_12:55:40 on domain   4:     .13379 elapsed seconds
Timing for main: time 2016-02-05_12:56:00 on domain   4:     .11163 elapsed seconds
Timing for main: time 2016-02-05_12:56:00 on domain   2:    1.06812 elapsed seconds
Timing for main: time 2016-02-05_12:56:00 on domain   1:    3.49813 elapsed seconds
Timing for main: time 2016-02-05_12:56:13 on domain   3:     .10631 elapsed seconds
Timing for main: time 2016-02-05_12:56:26 on domain   3:     .09036 elapsed seconds
Timing for main: time 2016-02-05_12:56:40 on domain   3:     .09365 elapsed seconds
Timing for main: time 2016-02-05_12:56:20 on domain   4:     .12556 elapsed seconds
Timing for main: time 2016-02-05_12:56:40 on domain   4:     .11249 elapsed seconds
Timing for main: time 2016-02-05_12:56:40 on domain   2:    1.05659 elapsed seconds
Timing for main: time 2016-02-05_12:56:53 on domain   3:     .10213 elapsed seconds
Timing for main: time 2016-02-05_12:57:06 on domain   3:     .09172 elapsed seconds
Timing for main: time 2016-02-05_12:57:20 on domain   3:     .09206 elapsed seconds
Timing for main: time 2016-02-05_12:57:00 on domain   4:     .12765 elapsed seconds
Timing for main: time 2016-02-05_12:57:20 on domain   4:     .11424 elapsed seconds
Timing for main: time 2016-02-05_12:57:20 on domain   2:    1.05630 elapsed seconds
Timing for main: time 2016-02-05_12:57:33 on domain   3:     .10225 elapsed seconds
Timing for main: time 2016-02-05_12:57:46 on domain   3:     .09359 elapsed seconds
Timing for main: time 2016-02-05_12:58:00 on domain   3:     .09042 elapsed seconds
Timing for main: time 2016-02-05_12:57:40 on domain   4:     .12583 elapsed seconds
Timing for main: time 2016-02-05_12:58:00 on domain   4:     .11274 elapsed seconds
Timing for main: time 2016-02-05_12:58:00 on domain   2:    1.04878 elapsed seconds
Timing for main: time 2016-02-05_12:58:00 on domain   1:    3.44176 elapsed seconds
  photolysis_driver: called for domain  1
Timing for main: time 2016-02-05_12:58:13 on domain   3:     .10230 elapsed seconds
Timing for main: time 2016-02-05_12:58:26 on domain   3:     .09004 elapsed seconds
Timing for main: time 2016-02-05_12:58:40 on domain   3:     .09196 elapsed seconds
Timing for main: time 2016-02-05_12:58:20 on domain   4:     .12569 elapsed seconds
Timing for main: time 2016-02-05_12:58:40 on domain   4:     .11375 elapsed seconds
Timing for main: time 2016-02-05_12:58:40 on domain   2:    1.10320 elapsed seconds
Timing for main: time 2016-02-05_12:58:53 on domain   3:     .10191 elapsed seconds
Timing for main: time 2016-02-05_12:59:06 on domain   3:     .09001 elapsed seconds
Timing for main: time 2016-02-05_12:59:20 on domain   3:     .09595 elapsed seconds
Timing for main: time 2016-02-05_12:59:00 on domain   4:     .12589 elapsed seconds
Timing for main: time 2016-02-05_12:59:20 on domain   4:     .11474 elapsed seconds
Timing for main: time 2016-02-05_12:59:20 on domain   2:    1.05524 elapsed seconds
  photolysis_driver: called for domain  2
Timing for main: time 2016-02-05_12:59:33 on domain   3:     .10722 elapsed seconds
Timing for main: time 2016-02-05_12:59:46 on domain   3:     .09025 elapsed seconds
  photolysis_driver: called for domain  3
Timing for main: time 2016-02-05_13:00:00 on domain   3:     .45605 elapsed seconds
Timing for main: time 2016-02-05_12:59:40 on domain   4:     .12561 elapsed seconds
  photolysis_driver: called for domain  4
Timing for main: time 2016-02-05_13:00:00 on domain   4:     .52171 elapsed seconds
Timing for main: time 2016-02-05_13:00:00 on domain   2:    2.24732 elapsed seconds
Timing for main: time 2016-02-05_13:00:00 on domain   1:    4.99603 elapsed seconds
Timing for Writing wrfout_d01_2016-02-05_13:00:00 for domain        1:    2.16196 elapsed seconds
  HOURLY EMISSIONS UPDATE TIME     3600.0        .0
 mediation_integrate: med_read_wrf_chem_emissions: Read emissions for time 2016-02-05_13:00:00
 **WARNING** Time in input file not being checked **WARNING**
Timing for Writing wrfout_d02_2016-02-05_13:00:00 for domain        2:    2.71663 elapsed seconds
Timing for Writing wrfout_d03_2016-02-05_13:00:00 for domain        3:    2.55334 elapsed seconds
Timing for main: time 2016-02-05_13:00:13 on domain   3:    2.74457 elapsed seconds
Timing for main: time 2016-02-05_13:00:26 on domain   3:     .09547 elapsed seconds
Timing for main: time 2016-02-05_13:00:40 on domain   3:     .09522 elapsed seconds
Timing for Writing wrfout_d04_2016-02-05_13:00:00 for domain        4:    2.71505 elapsed seconds
Timing for main: time 2016-02-05_13:00:20 on domain   4:    2.92235 elapsed seconds
Timing for main: time 2016-02-05_13:00:40 on domain   4:     .12557 elapsed seconds
Timing for main: time 2016-02-05_13:00:40 on domain   2:    9.70415 elapsed seconds
Timing for main: time 2016-02-05_13:00:53 on domain   3:     .10206 elapsed seconds
Timing for main: time 2016-02-05_13:01:06 on domain   3:     .08926 elapsed seconds
Timing for main: time 2016-02-05_13:01:20 on domain   3:     .09440 elapsed seconds
Timing for main: time 2016-02-05_13:01:00 on domain   4:     .12618 elapsed seconds
Timing for main: time 2016-02-05_13:01:20 on domain   4:     .11360 elapsed seconds
Timing for main: time 2016-02-05_13:01:20 on domain   2:    1.04164 elapsed seconds
Timing for main: time 2016-02-05_13:01:33 on domain   3:     .10229 elapsed seconds
Timing for main: time 2016-02-05_13:01:46 on domain   3:     .08912 elapsed seconds
Timing for main: time 2016-02-05_13:02:00 on domain   3:     .09328 elapsed seconds
Timing for main: time 2016-02-05_13:01:40 on domain   4:     .12580 elapsed seconds
Timing for main: time 2016-02-05_13:02:00 on domain   4:     .11347 elapsed seconds
Timing for main: time 2016-02-05_13:02:00 on domain   2:    1.04436 elapsed seconds
Timing for main: time 2016-02-05_13:02:00 on domain   1:   14.73310 elapsed seconds
Timing for main: time 2016-02-05_13:02:13 on domain   3:     .10217 elapsed seconds
Timing for main: time 2016-02-05_13:02:26 on domain   3:     .09866 elapsed seconds
Timing for main: time 2016-02-05_13:02:40 on domain   3:     .09658 elapsed seconds
Timing for main: time 2016-02-05_13:02:20 on domain   4:     .12610 elapsed seconds
Timing for main: time 2016-02-05_13:02:40 on domain   4:     .11439 elapsed seconds
Timing for main: time 2016-02-05_13:02:40 on domain   2:    1.05274 elapsed seconds
Timing for main: time 2016-02-05_13:02:53 on domain   3:     .10239 elapsed seconds
Timing for main: time 2016-02-05_13:03:06 on domain   3:     .09140 elapsed seconds
Timing for main: time 2016-02-05_13:03:20 on domain   3:     .09068 elapsed seconds
Timing for main: time 2016-02-05_13:03:00 on domain   4:     .12566 elapsed seconds
Timing for main: time 2016-02-05_13:03:20 on domain   4:     .11337 elapsed seconds
Timing for main: time 2016-02-05_13:03:20 on domain   2:    1.04455 elapsed seconds
Timing for main: time 2016-02-05_13:03:33 on domain   3:     .10045 elapsed seconds
Timing for main: time 2016-02-05_13:03:46 on domain   3:     .09467 elapsed seconds
Timing for main: time 2016-02-05_13:04:00 on domain   3:     .09276 elapsed seconds
Timing for main: time 2016-02-05_13:03:40 on domain   4:     .12690 elapsed seconds
Timing for main: time 2016-02-05_13:04:00 on domain   4:     .11330 elapsed seconds
Timing for main: time 2016-02-05_13:04:00 on domain   2:    1.04874 elapsed seconds
Timing for main: time 2016-02-05_13:04:00 on domain   1:    3.42590 elapsed seconds
Timing for main: time 2016-02-05_13:04:13 on domain   3:     .10169 elapsed seconds
Timing for main: time 2016-02-05_13:04:26 on domain   3:     .09092 elapsed seconds
Timing for main: time 2016-02-05_13:04:40 on domain   3:     .09210 elapsed seconds
Timing for main: time 2016-02-05_13:04:20 on domain   4:     .12642 elapsed seconds
Timing for main: time 2016-02-05_13:04:40 on domain   4:     .11219 elapsed seconds
Timing for main: time 2016-02-05_13:04:40 on domain   2:    1.04702 elapsed seconds
Timing for main: time 2016-02-05_13:04:53 on domain   3:     .10164 elapsed seconds
Timing for main: time 2016-02-05_13:05:06 on domain   3:     .09407 elapsed seconds
Timing for main: time 2016-02-05_13:05:20 on domain   3:     .11187 elapsed seconds
Timing for main: time 2016-02-05_13:05:00 on domain   4:     .13010 elapsed seconds
Timing for main: time 2016-02-05_13:05:20 on domain   4:     .11299 elapsed seconds
Timing for main: time 2016-02-05_13:05:20 on domain   2:    1.08641 elapsed seconds
Timing for main: time 2016-02-05_13:05:33 on domain   3:     .10302 elapsed seconds
Timing for main: time 2016-02-05_13:05:46 on domain   3:     .09093 elapsed seconds
Timing for main: time 2016-02-05_13:06:00 on domain   3:     .09081 elapsed seconds
Timing for main: time 2016-02-05_13:05:40 on domain   4:     .12525 elapsed seconds
Timing for main: time 2016-02-05_13:06:00 on domain   4:     .11744 elapsed seconds
Timing for main: time 2016-02-05_13:06:00 on domain   2:    1.04676 elapsed seconds
Timing for main: time 2016-02-05_13:06:00 on domain   1:    3.46273 elapsed seconds
Timing for main: time 2016-02-05_13:06:13 on domain   3:     .10223 elapsed seconds
Timing for main: time 2016-02-05_13:06:26 on domain   3:     .09381 elapsed seconds
Timing for main: time 2016-02-05_13:06:40 on domain   3:     .09203 elapsed seconds
Timing for main: time 2016-02-05_13:06:20 on domain   4:     .12592 elapsed seconds
Timing for main: time 2016-02-05_13:06:40 on domain   4:     .11343 elapsed seconds
Timing for main: time 2016-02-05_13:06:40 on domain   2:    1.04194 elapsed seconds
Timing for main: time 2016-02-05_13:06:53 on domain   3:     .10211 elapsed seconds
Timing for main: time 2016-02-05_13:07:06 on domain   3:     .08876 elapsed seconds
Timing for main: time 2016-02-05_13:07:20 on domain   3:     .09258 elapsed seconds
Timing for main: time 2016-02-05_13:07:00 on domain   4:     .12714 elapsed seconds
Timing for main: time 2016-02-05_13:07:20 on domain   4:     .11360 elapsed seconds
Timing for main: time 2016-02-05_13:07:20 on domain   2:    1.04807 elapsed seconds
Timing for main: time 2016-02-05_13:07:33 on domain   3:     .10236 elapsed seconds
Timing for main: time 2016-02-05_13:07:46 on domain   3:     .09165 elapsed seconds
Timing for main: time 2016-02-05_13:08:00 on domain   3:     .09222 elapsed seconds
Timing for main: time 2016-02-05_13:07:40 on domain   4:     .12564 elapsed seconds
Timing for main: time 2016-02-05_13:08:00 on domain   4:     .11343 elapsed seconds
Timing for main: time 2016-02-05_13:08:00 on domain   2:    1.05383 elapsed seconds
Timing for main: time 2016-02-05_13:08:00 on domain   1:    3.42333 elapsed seconds
Timing for main: time 2016-02-05_13:08:13 on domain   3:     .10217 elapsed seconds
Timing for main: time 2016-02-05_13:08:26 on domain   3:     .09010 elapsed seconds
Timing for main: time 2016-02-05_13:08:40 on domain   3:     .09202 elapsed seconds
Timing for main: time 2016-02-05_13:08:20 on domain   4:     .12624 elapsed seconds
Timing for main: time 2016-02-05_13:08:40 on domain   4:     .11684 elapsed seconds
Timing for main: time 2016-02-05_13:08:40 on domain   2:    1.04269 elapsed seconds
Timing for main: time 2016-02-05_13:08:53 on domain   3:     .10024 elapsed seconds
Timing for main: time 2016-02-05_13:09:06 on domain   3:     .09220 elapsed seconds
Timing for main: time 2016-02-05_13:09:20 on domain   3:     .09425 elapsed seconds
Timing for main: time 2016-02-05_13:09:00 on domain   4:     .12625 elapsed seconds
Timing for main: time 2016-02-05_13:09:20 on domain   4:     .11467 elapsed seconds
Timing for main: time 2016-02-05_13:09:20 on domain   2:    1.04893 elapsed seconds
Timing for main: time 2016-02-05_13:09:33 on domain   3:     .10392 elapsed seconds
Timing for main: time 2016-02-05_13:09:46 on domain   3:     .09133 elapsed seconds
Timing for main: time 2016-02-05_13:10:00 on domain   3:     .09150 elapsed seconds
Timing for main: time 2016-02-05_13:09:40 on domain   4:     .12609 elapsed seconds
Timing for main: time 2016-02-05_13:10:00 on domain   4:     .15121 elapsed seconds
Timing for main: time 2016-02-05_13:10:00 on domain   2:    1.08241 elapsed seconds
Timing for main: time 2016-02-05_13:10:00 on domain   1:    3.45538 elapsed seconds
Timing for main: time 2016-02-05_13:10:13 on domain   3:     .11711 elapsed seconds
Timing for main: time 2016-02-05_13:10:26 on domain   3:     .13241 elapsed seconds
Timing for main: time 2016-02-05_13:10:40 on domain   3:     .11626 elapsed seconds
Timing for main: time 2016-02-05_13:10:20 on domain   4:     .12632 elapsed seconds
Timing for main: time 2016-02-05_13:10:40 on domain   4:     .11229 elapsed seconds
Timing for main: time 2016-02-05_13:10:40 on domain   2:    1.11950 elapsed seconds
Timing for main: time 2016-02-05_13:10:53 on domain   3:     .10205 elapsed seconds
Timing for main: time 2016-02-05_13:11:06 on domain   3:     .09043 elapsed seconds
Timing for main: time 2016-02-05_13:11:20 on domain   3:     .09080 elapsed seconds
Timing for main: time 2016-02-05_13:11:00 on domain   4:     .12587 elapsed seconds
Timing for main: time 2016-02-05_13:11:20 on domain   4:     .11256 elapsed seconds
Timing for main: time 2016-02-05_13:11:20 on domain   2:    1.04107 elapsed seconds
Timing for main: time 2016-02-05_13:11:33 on domain   3:     .10601 elapsed seconds
Timing for main: time 2016-02-05_13:11:46 on domain   3:     .09013 elapsed seconds
Timing for main: time 2016-02-05_13:12:00 on domain   3:     .09077 elapsed seconds
Timing for main: time 2016-02-05_13:11:40 on domain   4:     .12661 elapsed seconds
Timing for main: time 2016-02-05_13:12:00 on domain   4:     .11284 elapsed seconds
Timing for main: time 2016-02-05_13:12:00 on domain   2:    1.04552 elapsed seconds
Timing for main: time 2016-02-05_13:12:00 on domain   1:    3.52786 elapsed seconds
Timing for main: time 2016-02-05_13:12:13 on domain   3:     .10196 elapsed seconds
Timing for main: time 2016-02-05_13:12:26 on domain   3:     .08962 elapsed seconds
Timing for main: time 2016-02-05_13:12:40 on domain   3:     .09111 elapsed seconds
Timing for main: time 2016-02-05_13:12:20 on domain   4:     .12588 elapsed seconds
Timing for main: time 2016-02-05_13:12:40 on domain   4:     .11295 elapsed seconds
Timing for main: time 2016-02-05_13:12:40 on domain   2:    1.05436 elapsed seconds
Timing for main: time 2016-02-05_13:12:53 on domain   3:     .10302 elapsed seconds
Timing for main: time 2016-02-05_13:13:06 on domain   3:     .09720 elapsed seconds
Timing for main: time 2016-02-05_13:13:20 on domain   3:     .09221 elapsed seconds
Timing for main: time 2016-02-05_13:13:00 on domain   4:     .12562 elapsed seconds
Timing for main: time 2016-02-05_13:13:20 on domain   4:     .11483 elapsed seconds
Timing for main: time 2016-02-05_13:13:20 on domain   2:    1.05262 elapsed seconds
Timing for main: time 2016-02-05_13:13:33 on domain   3:     .10234 elapsed seconds
Timing for main: time 2016-02-05_13:13:46 on domain   3:     .09364 elapsed seconds
Timing for main: time 2016-02-05_13:14:00 on domain   3:     .09104 elapsed seconds
Timing for main: time 2016-02-05_13:13:40 on domain   4:     .12585 elapsed seconds
Timing for main: time 2016-02-05_13:14:00 on domain   4:     .11446 elapsed seconds
Timing for main: time 2016-02-05_13:14:00 on domain   2:    1.04628 elapsed seconds
Timing for main: time 2016-02-05_13:14:00 on domain   1:    3.43237 elapsed seconds
Timing for main: time 2016-02-05_13:14:13 on domain   3:     .10538 elapsed seconds
Timing for main: time 2016-02-05_13:14:26 on domain   3:     .08866 elapsed seconds
Timing for main: time 2016-02-05_13:14:40 on domain   3:     .09125 elapsed seconds
Timing for main: time 2016-02-05_13:14:20 on domain   4:     .12534 elapsed seconds
Timing for main: time 2016-02-05_13:14:40 on domain   4:     .11221 elapsed seconds
Timing for main: time 2016-02-05_13:14:40 on domain   2:    1.04271 elapsed seconds
Timing for main: time 2016-02-05_13:14:53 on domain   3:     .10246 elapsed seconds
Timing for main: time 2016-02-05_13:15:06 on domain   3:     .09145 elapsed seconds
Timing for main: time 2016-02-05_13:15:20 on domain   3:     .09008 elapsed seconds
Timing for main: time 2016-02-05_13:15:00 on domain   4:     .13067 elapsed seconds
Timing for main: time 2016-02-05_13:15:20 on domain   4:     .11673 elapsed seconds
Timing for main: time 2016-02-05_13:15:20 on domain   2:    1.05491 elapsed seconds
Timing for main: time 2016-02-05_13:15:33 on domain   3:     .10225 elapsed seconds
Timing for main: time 2016-02-05_13:15:46 on domain   3:     .10101 elapsed seconds
Timing for main: time 2016-02-05_13:16:00 on domain   3:     .10118 elapsed seconds
Timing for main: time 2016-02-05_13:15:40 on domain   4:     .12624 elapsed seconds
Timing for main: time 2016-02-05_13:16:00 on domain   4:     .11178 elapsed seconds
Timing for main: time 2016-02-05_13:16:00 on domain   2:    1.06385 elapsed seconds
Timing for main: time 2016-02-05_13:16:00 on domain   1:    3.43969 elapsed seconds
Timing for main: time 2016-02-05_13:16:13 on domain   3:     .10074 elapsed seconds
Timing for main: time 2016-02-05_13:16:26 on domain   3:     .09094 elapsed seconds
Timing for main: time 2016-02-05_13:16:40 on domain   3:     .09915 elapsed seconds
Timing for main: time 2016-02-05_13:16:20 on domain   4:     .12554 elapsed seconds
Timing for main: time 2016-02-05_13:16:40 on domain   4:     .13647 elapsed seconds
Timing for main: time 2016-02-05_13:16:40 on domain   2:    1.07606 elapsed seconds
Timing for main: time 2016-02-05_13:16:53 on domain   3:     .10122 elapsed seconds
Timing for main: time 2016-02-05_13:17:06 on domain   3:     .09100 elapsed seconds
Timing for main: time 2016-02-05_13:17:20 on domain   3:     .09081 elapsed seconds
Timing for main: time 2016-02-05_13:17:00 on domain   4:     .12640 elapsed seconds
Timing for main: time 2016-02-05_13:17:20 on domain   4:     .11312 elapsed seconds
Timing for main: time 2016-02-05_13:17:20 on domain   2:    1.09117 elapsed seconds
Timing for main: time 2016-02-05_13:17:33 on domain   3:     .10210 elapsed seconds
[...]
Timing for main: time 2016-02-05_17:36:00 on domain   2:    1.04685 elapsed seconds
Timing for main: time 2016-02-05_17:36:00 on domain   1:    3.42456 elapsed seconds
Timing for main: time 2016-02-05_17:36:13 on domain   3:     .10857 elapsed seconds
Timing for main: time 2016-02-05_17:36:26 on domain   3:     .08973 elapsed seconds
Timing for main: time 2016-02-05_17:36:40 on domain   3:     .09115 elapsed seconds
Timing for main: time 2016-02-05_17:36:20 on domain   4:     .12699 elapsed seconds
Timing for main: time 2016-02-05_17:36:40 on domain   4:     .11353 elapsed seconds
Timing for main: time 2016-02-05_17:36:40 on domain   2:    1.05429 elapsed seconds
Timing for main: time 2016-02-05_17:36:53 on domain   3:     .10274 elapsed seconds
Timing for main: time 2016-02-05_17:37:06 on domain   3:     .08959 elapsed seconds
Timing for main: time 2016-02-05_17:37:20 on domain   3:     .10413 elapsed seconds
Timing for main: time 2016-02-05_17:37:00 on domain   4:     .12751 elapsed seconds
Timing for main: time 2016-02-05_17:37:20 on domain   4:     .11597 elapsed seconds
Timing for main: time 2016-02-05_17:37:20 on domain   2:    1.05578 elapsed seconds
Timing for main: time 2016-02-05_17:37:33 on domain   3:     .10220 elapsed seconds
Timing for main: time 2016-02-05_17:37:46 on domain   3:     .09116 elapsed seconds
Timing for main: time 2016-02-05_17:38:00 on domain   3:     .09577 elapsed seconds
Timing for main: time 2016-02-05_17:37:40 on domain   4:     .12679 elapsed seconds
Timing for main: time 2016-02-05_17:38:00 on domain   4:     .11469 elapsed seconds
Timing for main: time 2016-02-05_17:38:00 on domain   2:    1.04339 elapsed seconds
Timing for main: time 2016-02-05_17:38:00 on domain   1:    3.45655 elapsed seconds
Timing for main: time 2016-02-05_17:38:13 on domain   3:     .10216 elapsed seconds
Timing for main: time 2016-02-05_17:38:26 on domain   3:     .09122 elapsed seconds
Timing for main: time 2016-02-05_17:38:40 on domain   3:     .09203 elapsed seconds
Timing for main: time 2016-02-05_17:38:20 on domain   4:     .12714 elapsed seconds
Timing for main: time 2016-02-05_17:38:40 on domain   4:     .11233 elapsed seconds
Timing for main: time 2016-02-05_17:38:40 on domain   2:    1.03937 elapsed seconds
Timing for main: time 2016-02-05_17:38:53 on domain   3:     .10223 elapsed seconds
Timing for main: time 2016-02-05_17:39:06 on domain   3:     .09139 elapsed seconds
Timing for main: time 2016-02-05_17:39:20 on domain   3:     .09126 elapsed seconds
Timing for main: time 2016-02-05_17:39:00 on domain   4:     .12663 elapsed seconds
Timing for main: time 2016-02-05_17:39:20 on domain   4:     .11155 elapsed seconds
Timing for main: time 2016-02-05_17:39:20 on domain   2:    1.04105 elapsed seconds
Timing for main: time 2016-02-05_17:39:33 on domain   3:     .10223 elapsed seconds
Timing for main: time 2016-02-05_17:39:46 on domain   3:     .09093 elapsed seconds
Timing for main: time 2016-02-05_17:40:00 on domain   3:     .09098 elapsed seconds
Timing for main: time 2016-02-05_17:39:40 on domain   4:     .12676 elapsed seconds
Timing for main: time 2016-02-05_17:40:00 on domain   4:     .11940 elapsed seconds
Timing for main: time 2016-02-05_17:40:00 on domain   2:    1.07994 elapsed seconds
Timing for main: time 2016-02-05_17:40:00 on domain   1:    3.43526 elapsed seconds
Timing for main: time 2016-02-05_17:40:13 on domain   3:     .10351 elapsed seconds
Timing for main: time 2016-02-05_17:40:26 on domain   3:     .08921 elapsed seconds
Timing for main: time 2016-02-05_17:40:40 on domain   3:     .09105 elapsed seconds
Timing for main: time 2016-02-05_17:40:20 on domain   4:     .12693 elapsed seconds
Timing for main: time 2016-02-05_17:40:40 on domain   4:     .11374 elapsed seconds
Timing for main: time 2016-02-05_17:40:40 on domain   2:    1.04591 elapsed seconds
Timing for main: time 2016-02-05_17:40:53 on domain   3:     .10416 elapsed seconds
Timing for main: time 2016-02-05_17:41:06 on domain   3:     .09223 elapsed seconds
Timing for main: time 2016-02-05_17:41:20 on domain   3:     .09285 elapsed seconds
Timing for main: time 2016-02-05_17:41:00 on domain   4:     .15772 elapsed seconds
Timing for main: time 2016-02-05_17:41:20 on domain   4:     .15186 elapsed seconds
Timing for main: time 2016-02-05_17:41:20 on domain   2:    1.12186 elapsed seconds
Timing for main: time 2016-02-05_17:41:33 on domain   3:     .10234 elapsed seconds
Timing for main: time 2016-02-05_17:41:46 on domain   3:     .08995 elapsed seconds
Timing for main: time 2016-02-05_17:42:00 on domain   3:     .09124 elapsed seconds
Timing for main: time 2016-02-05_17:41:40 on domain   4:     .12652 elapsed seconds
Timing for main: time 2016-02-05_17:42:00 on domain   4:     .11311 elapsed seconds
Timing for main: time 2016-02-05_17:42:00 on domain   2:    1.03875 elapsed seconds
Timing for main: time 2016-02-05_17:42:00 on domain   1:    3.48688 elapsed seconds
Timing for main: time 2016-02-05_17:42:13 on domain   3:     .10713 elapsed seconds
Timing for main: time 2016-02-05_17:42:26 on domain   3:     .09392 elapsed seconds
Timing for main: time 2016-02-05_17:42:40 on domain   3:     .09146 elapsed seconds
Timing for main: time 2016-02-05_17:42:20 on domain   4:     .12697 elapsed seconds
Timing for main: time 2016-02-05_17:42:40 on domain   4:     .11909 elapsed seconds
Timing for main: time 2016-02-05_17:42:40 on domain   2:    1.05417 elapsed seconds
Timing for main: time 2016-02-05_17:42:53 on domain   3:     .10245 elapsed seconds
Timing for main: time 2016-02-05_17:43:06 on domain   3:     .09086 elapsed seconds
Timing for main: time 2016-02-05_17:43:20 on domain   3:     .09244 elapsed seconds
Timing for main: time 2016-02-05_17:43:00 on domain   4:     .12708 elapsed seconds
Timing for main: time 2016-02-05_17:43:20 on domain   4:     .11411 elapsed seconds
Timing for main: time 2016-02-05_17:43:20 on domain   2:    1.04397 elapsed seconds
Timing for main: time 2016-02-05_17:43:33 on domain   3:     .10239 elapsed seconds
Timing for main: time 2016-02-05_17:43:46 on domain   3:     .09081 elapsed seconds
Timing for main: time 2016-02-05_17:44:00 on domain   3:     .09100 elapsed seconds
Timing for main: time 2016-02-05_17:43:40 on domain   4:     .12672 elapsed seconds
Timing for main: time 2016-02-05_17:44:00 on domain   4:     .11381 elapsed seconds
Timing for main: time 2016-02-05_17:44:00 on domain   2:    1.04098 elapsed seconds
Timing for main: time 2016-02-05_17:44:00 on domain   1:    3.41586 elapsed seconds
Timing for main: time 2016-02-05_17:44:13 on domain   3:     .10267 elapsed seconds
Timing for main: time 2016-02-05_17:44:26 on domain   3:     .09181 elapsed seconds
Timing for main: time 2016-02-05_17:44:40 on domain   3:     .09254 elapsed seconds
Timing for main: time 2016-02-05_17:44:20 on domain   4:     .12672 elapsed seconds
Timing for main: time 2016-02-05_17:44:40 on domain   4:     .11251 elapsed seconds
Timing for main: time 2016-02-05_17:44:40 on domain   2:    1.04086 elapsed seconds
Timing for main: time 2016-02-05_17:44:53 on domain   3:     .10213 elapsed seconds
Timing for main: time 2016-02-05_17:45:06 on domain   3:     .09606 elapsed seconds
Timing for main: time 2016-02-05_17:45:20 on domain   3:     .09202 elapsed seconds
Timing for main: time 2016-02-05_17:45:00 on domain   4:     .13100 elapsed seconds
Timing for main: time 2016-02-05_17:45:20 on domain   4:     .11223 elapsed seconds
Timing for main: time 2016-02-05_17:45:20 on domain   2:    1.05330 elapsed seconds
Timing for main: time 2016-02-05_17:45:33 on domain   3:     .10219 elapsed seconds
Timing for main: time 2016-02-05_17:45:46 on domain   3:     .09095 elapsed seconds
Timing for main: time 2016-02-05_17:46:00 on domain   3:     .09215 elapsed seconds
Timing for main: time 2016-02-05_17:45:40 on domain   4:     .13456 elapsed seconds
Timing for main: time 2016-02-05_17:46:00 on domain   4:     .11502 elapsed seconds
Timing for main: time 2016-02-05_17:46:00 on domain   2:    1.10646 elapsed seconds
Timing for main: time 2016-02-05_17:46:00 on domain   1:    3.47792 elapsed seconds
Timing for main: time 2016-02-05_17:46:13 on domain   3:     .10308 elapsed seconds
Timing for main: time 2016-02-05_17:46:26 on domain   3:     .09108 elapsed seconds
Timing for main: time 2016-02-05_17:46:40 on domain   3:     .09139 elapsed seconds
Timing for main: time 2016-02-05_17:46:20 on domain   4:     .12846 elapsed seconds
Timing for main: time 2016-02-05_17:46:40 on domain   4:     .11216 elapsed seconds
Timing for main: time 2016-02-05_17:46:40 on domain   2:    1.04494 elapsed seconds
Timing for main: time 2016-02-05_17:46:53 on domain   3:     .10254 elapsed seconds
Timing for main: time 2016-02-05_17:47:06 on domain   3:     .09090 elapsed seconds
Timing for main: time 2016-02-05_17:47:20 on domain   3:     .09085 elapsed seconds
Timing for main: time 2016-02-05_17:47:00 on domain   4:     .12690 elapsed seconds
Timing for main: time 2016-02-05_17:47:20 on domain   4:     .11371 elapsed seconds
Timing for main: time 2016-02-05_17:47:20 on domain   2:    1.04386 elapsed seconds
Timing for main: time 2016-02-05_17:47:33 on domain   3:     .10683 elapsed seconds
Timing for main: time 2016-02-05_17:47:46 on domain   3:     .09232 elapsed seconds
Timing for main: time 2016-02-05_17:48:00 on domain   3:     .10054 elapsed seconds
Timing for main: time 2016-02-05_17:47:40 on domain   4:     .12670 elapsed seconds
Timing for main: time 2016-02-05_17:48:00 on domain   4:     .11361 elapsed seconds
Timing for main: time 2016-02-05_17:48:00 on domain   2:    1.06002 elapsed seconds
Timing for main: time 2016-02-05_17:48:00 on domain   1:    3.42710 elapsed seconds
Timing for main: time 2016-02-05_17:48:13 on domain   3:     .10241 elapsed seconds
Timing for main: time 2016-02-05_17:48:26 on domain   3:     .09111 elapsed seconds
Timing for main: time 2016-02-05_17:48:40 on domain   3:     .09097 elapsed seconds
Timing for main: time 2016-02-05_17:48:20 on domain   4:     .12720 elapsed seconds
Timing for main: time 2016-02-05_17:48:40 on domain   4:     .11248 elapsed seconds
Timing for main: time 2016-02-05_17:48:40 on domain   2:    1.03726 elapsed seconds
Timing for main: time 2016-02-05_17:48:53 on domain   3:     .10256 elapsed seconds
Timing for main: time 2016-02-05_17:49:06 on domain   3:     .09108 elapsed seconds
Timing for main: time 2016-02-05_17:49:20 on domain   3:     .09115 elapsed seconds
Timing for main: time 2016-02-05_17:49:00 on domain   4:     .12647 elapsed seconds
Timing for main: time 2016-02-05_17:49:20 on domain   4:     .11641 elapsed seconds
Timing for main: time 2016-02-05_17:49:20 on domain   2:    1.04660 elapsed seconds
Timing for main: time 2016-02-05_17:49:33 on domain   3:     .10237 elapsed seconds
Timing for main: time 2016-02-05_17:49:46 on domain   3:     .09098 elapsed seconds
Timing for main: time 2016-02-05_17:50:00 on domain   3:     .09101 elapsed seconds
Timing for main: time 2016-02-05_17:49:40 on domain   4:     .12725 elapsed seconds
Timing for main: time 2016-02-05_17:50:00 on domain   4:     .11749 elapsed seconds
Timing for main: time 2016-02-05_17:50:00 on domain   2:    1.04823 elapsed seconds
Timing for main: time 2016-02-05_17:50:00 on domain   1:    3.40915 elapsed seconds
Timing for main: time 2016-02-05_17:50:13 on domain   3:     .10244 elapsed seconds
Timing for main: time 2016-02-05_17:50:26 on domain   3:     .09092 elapsed seconds
Timing for main: time 2016-02-05_17:50:40 on domain   3:     .09138 elapsed seconds
Timing for main: time 2016-02-05_17:50:20 on domain   4:     .12650 elapsed seconds
Timing for main: time 2016-02-05_17:50:40 on domain   4:     .11337 elapsed seconds
Timing for main: time 2016-02-05_17:50:40 on domain   2:    1.03799 elapsed seconds
Timing for main: time 2016-02-05_17:50:53 on domain   3:     .10263 elapsed seconds
Timing for main: time 2016-02-05_17:51:06 on domain   3:     .09092 elapsed seconds
Timing for main: time 2016-02-05_17:51:20 on domain   3:     .09159 elapsed seconds
Timing for main: time 2016-02-05_17:51:00 on domain   4:     .12657 elapsed seconds
Timing for main: time 2016-02-05_17:51:20 on domain   4:     .11373 elapsed seconds
Timing for main: time 2016-02-05_17:51:20 on domain   2:    1.04285 elapsed seconds
Timing for main: time 2016-02-05_17:51:33 on domain   3:     .10241 elapsed seconds
Timing for main: time 2016-02-05_17:51:46 on domain   3:     .09172 elapsed seconds
Timing for main: time 2016-02-05_17:52:00 on domain   3:     .09652 elapsed seconds
Timing for main: time 2016-02-05_17:51:40 on domain   4:     .12678 elapsed seconds
Timing for main: time 2016-02-05_17:52:00 on domain   4:     .11344 elapsed seconds
Timing for main: time 2016-02-05_17:52:00 on domain   2:    1.05427 elapsed seconds
Timing for main: time 2016-02-05_17:52:00 on domain   1:    3.41199 elapsed seconds
Timing for main: time 2016-02-05_17:52:13 on domain   3:     .11292 elapsed seconds
Timing for main: time 2016-02-05_17:52:26 on domain   3:     .11699 elapsed seconds
Timing for main: time 2016-02-05_17:52:40 on domain   3:     .10759 elapsed seconds
Timing for main: time 2016-02-05_17:52:20 on domain   4:     .12777 elapsed seconds
Timing for main: time 2016-02-05_17:52:40 on domain   4:     .11308 elapsed seconds
Timing for main: time 2016-02-05_17:52:40 on domain   2:    1.09133 elapsed seconds
Timing for main: time 2016-02-05_17:52:53 on domain   3:     .10567 elapsed seconds
Timing for main: time 2016-02-05_17:53:06 on domain   3:     .09103 elapsed seconds
Timing for main: time 2016-02-05_17:53:20 on domain   3:     .09224 elapsed seconds
Timing for main: time 2016-02-05_17:53:00 on domain   4:     .12652 elapsed seconds
Timing for main: time 2016-02-05_17:53:20 on domain   4:     .11261 elapsed seconds
Timing for main: time 2016-02-05_17:53:20 on domain   2:    1.04691 elapsed seconds
Timing for main: time 2016-02-05_17:53:33 on domain   3:     .10249 elapsed seconds
Timing for main: time 2016-02-05_17:53:46 on domain   3:     .09888 elapsed seconds
Timing for main: time 2016-02-05_17:54:00 on domain   3:     .10029 elapsed seconds
Timing for main: time 2016-02-05_17:53:40 on domain   4:     .12678 elapsed seconds
Timing for main: time 2016-02-05_17:54:00 on domain   4:     .11367 elapsed seconds
Timing for main: time 2016-02-05_17:54:00 on domain   2:    1.05942 elapsed seconds
Timing for main: time 2016-02-05_17:54:00 on domain   1:    3.52948 elapsed seconds
Timing for main: time 2016-02-05_17:54:13 on domain   3:     .10265 elapsed seconds
Timing for main: time 2016-02-05_17:54:26 on domain   3:     .09110 elapsed seconds
Timing for main: time 2016-02-05_17:54:40 on domain   3:     .09139 elapsed seconds
Timing for main: time 2016-02-05_17:54:20 on domain   4:     .12579 elapsed seconds
Timing for main: time 2016-02-05_17:54:40 on domain   4:     .12105 elapsed seconds
Timing for main: time 2016-02-05_17:54:40 on domain   2:    1.04603 elapsed seconds
Timing for main: time 2016-02-05_17:54:53 on domain   3:     .10262 elapsed seconds
Timing for main: time 2016-02-05_17:55:06 on domain   3:     .09095 elapsed seconds
Timing for main: time 2016-02-05_17:55:20 on domain   3:     .09122 elapsed seconds
Timing for main: time 2016-02-05_17:55:00 on domain   4:     .13104 elapsed seconds
Timing for main: time 2016-02-05_17:55:20 on domain   4:     .11353 elapsed seconds
Timing for main: time 2016-02-05_17:55:20 on domain   2:    1.04853 elapsed seconds
Timing for main: time 2016-02-05_17:55:33 on domain   3:     .10288 elapsed seconds
Timing for main: time 2016-02-05_17:55:46 on domain   3:     .09328 elapsed seconds
Timing for main: time 2016-02-05_17:56:00 on domain   3:     .09190 elapsed seconds
Timing for main: time 2016-02-05_17:55:40 on domain   4:     .12617 elapsed seconds
Timing for main: time 2016-02-05_17:56:00 on domain   4:     .11302 elapsed seconds
Timing for main: time 2016-02-05_17:56:00 on domain   2:    1.04385 elapsed seconds
Timing for main: time 2016-02-05_17:56:00 on domain   1:    3.41549 elapsed seconds
Timing for main: time 2016-02-05_17:56:13 on domain   3:     .10429 elapsed seconds
Timing for main: time 2016-02-05_17:56:26 on domain   3:     .09080 elapsed seconds
Timing for main: time 2016-02-05_17:56:40 on domain   3:     .09357 elapsed seconds
Timing for main: time 2016-02-05_17:56:20 on domain   4:     .12604 elapsed seconds
Timing for main: time 2016-02-05_17:56:40 on domain   4:     .11373 elapsed seconds
Timing for main: time 2016-02-05_17:56:40 on domain   2:    1.04858 elapsed seconds
Timing for main: time 2016-02-05_17:56:53 on domain   3:     .10259 elapsed seconds
Timing for main: time 2016-02-05_17:57:06 on domain   3:     .09149 elapsed seconds
Timing for main: time 2016-02-05_17:57:20 on domain   3:     .09169 elapsed seconds
Timing for main: time 2016-02-05_17:57:00 on domain   4:     .12727 elapsed seconds
Timing for main: time 2016-02-05_17:57:20 on domain   4:     .11274 elapsed seconds
Timing for main: time 2016-02-05_17:57:20 on domain   2:    1.04766 elapsed seconds
Timing for main: time 2016-02-05_17:57:33 on domain   3:     .10356 elapsed seconds
Timing for main: time 2016-02-05_17:57:46 on domain   3:     .09712 elapsed seconds
Timing for main: time 2016-02-05_17:58:00 on domain   3:     .09244 elapsed seconds
Timing for main: time 2016-02-05_17:57:40 on domain   4:     .12655 elapsed seconds
Timing for main: time 2016-02-05_17:58:00 on domain   4:     .11378 elapsed seconds
Timing for main: time 2016-02-05_17:58:00 on domain   2:    1.05320 elapsed seconds
Timing for main: time 2016-02-05_17:58:00 on domain   1:    3.42654 elapsed seconds
  photolysis_driver: called for domain  1
Timing for main: time 2016-02-05_17:58:13 on domain   3:     .10995 elapsed seconds
Timing for main: time 2016-02-05_17:58:26 on domain   3:     .09095 elapsed seconds
Timing for main: time 2016-02-05_17:58:40 on domain   3:     .09105 elapsed seconds
Timing for main: time 2016-02-05_17:58:20 on domain   4:     .12688 elapsed seconds
Timing for main: time 2016-02-05_17:58:40 on domain   4:     .11342 elapsed seconds
Timing for main: time 2016-02-05_17:58:40 on domain   2:    1.04548 elapsed seconds
Timing for main: time 2016-02-05_17:58:53 on domain   3:     .10270 elapsed seconds
Timing for main: time 2016-02-05_17:59:06 on domain   3:     .09078 elapsed seconds
Timing for main: time 2016-02-05_17:59:20 on domain   3:     .09110 elapsed seconds
Timing for main: time 2016-02-05_17:59:00 on domain   4:     .12706 elapsed seconds
Timing for main: time 2016-02-05_17:59:20 on domain   4:     .11323 elapsed seconds
Timing for main: time 2016-02-05_17:59:20 on domain   2:    1.04357 elapsed seconds
  photolysis_driver: called for domain  2
Timing for main: time 2016-02-05_17:59:33 on domain   3:     .10260 elapsed seconds
Timing for main: time 2016-02-05_17:59:46 on domain   3:     .09140 elapsed seconds
  photolysis_driver: called for domain  3
Timing for main: time 2016-02-05_18:00:00 on domain   3:     .46314 elapsed seconds
Timing for Writing wrfout_d03_2016-02-05_18:00:00 for domain        3:    2.49063 elapsed seconds
Timing for main: time 2016-02-05_17:59:40 on domain   4:     .12766 elapsed seconds
  photolysis_driver: called for domain  4
Timing for main: time 2016-02-05_18:00:00 on domain   4:     .52630 elapsed seconds
Timing for Writing wrfout_d04_2016-02-05_18:00:00 for domain        4:    2.71387 elapsed seconds
Timing for main: time 2016-02-05_18:00:00 on domain   2:    7.47124 elapsed seconds
Timing for Writing wrfout_d02_2016-02-05_18:00:00 for domain        2:    2.79399 elapsed seconds
Timing for main: time 2016-02-05_18:00:00 on domain   1:   12.86685 elapsed seconds
Timing for Writing wrfout_d01_2016-02-05_18:00:00 for domain        1:    2.15366 elapsed seconds
 d01 2016-02-05_18:00:00 wrf: SUCCESS COMPLETE WRF
