taskid: 0 hostname: p10a51.pbm.ihost.com
  Ntasks in X  10 , ntasks in Y  40
 Setting blank km_opt entries to domain #1 values.
  --> The km_opt entry in the namelist.input is now max_domains.
 Setting blank diff_opt entries to domain #1 values.
  --> The diff_opt entry in the namelist.input is now max_domains.
 --- WARNING: traj_opt is zero, but num_traj is not zero; setting num_traj to zero.
 --- NOTE: hypsometric_opt is 2, setting adjust_heights = F
 --- NOTE: sst_update is 0, setting io_form_auxinput4 = 0 and auxinput4_interval = 0 for all domains
 --- NOTE: sst_update is 0, setting io_form_auxinput4 = 0 and auxinput4_interval = 0 for all domains
 --- NOTE: sst_update is 0, setting io_form_auxinput4 = 0 and auxinput4_interval = 0 for all domains
 --- NOTE: sst_update is 0, setting io_form_auxinput4 = 0 and auxinput4_interval = 0 for all domains
 --- NOTE: grid_fdda is 0 for domain      1, setting gfdda interval and ending time to 0 for that domain.
 --- NOTE: both grid_sfdda and pxlsm_soil_nudge are 0 for domain      1, setting sgfdda interval and ending time to 0 for that domain.
 --- NOTE: obs_nudge_opt is 0 for domain      1, setting obs nudging interval and ending time to 0 for that domain.
 --- NOTE: grid_fdda is 0 for domain      2, setting gfdda interval and ending time to 0 for that domain.
 --- NOTE: both grid_sfdda and pxlsm_soil_nudge are 0 for domain      2, setting sgfdda interval and ending time to 0 for that domain.
 --- NOTE: obs_nudge_opt is 0 for domain      2, setting obs nudging interval and ending time to 0 for that domain.
 --- NOTE: grid_fdda is 0 for domain      3, setting gfdda interval and ending time to 0 for that domain.
 --- NOTE: both grid_sfdda and pxlsm_soil_nudge are 0 for domain      3, setting sgfdda interval and ending time to 0 for that domain.
 --- NOTE: obs_nudge_opt is 0 for domain      3, setting obs nudging interval and ending time to 0 for that domain.
 --- NOTE: grid_fdda is 0 for domain      4, setting gfdda interval and ending time to 0 for that domain.
 --- NOTE: both grid_sfdda and pxlsm_soil_nudge are 0 for domain      4, setting sgfdda interval and ending time to 0 for that domain.
 --- NOTE: obs_nudge_opt is 0 for domain      4, setting obs nudging interval and ending time to 0 for that domain.
 bl_pbl_physics /= 4, implies mfshconv must be 0, resetting
 --- NOTE: num_soil_layers has been set to      4
 WRF V3.6 MODEL
  *************************************
  Parent domain
  ids,ide,jds,jde  1 271 1 181
  ims,ime,jms,jme  -4 34 -4 12
  ips,ipe,jps,jpe  1 27 1 5
  *************************************
 DYNAMICS OPTION: Eulerian Mass Coordinate
    alloc_space_field: domain  1 ,  69115472  bytes allocated
   med_initialdata_input: calling input_input
Timing for processing wrfinput file (stream 0) for domain        1:    4.06767 elapsed seconds
 INPUT LandUse = "USGS"
  LANDUSE TYPE = "USGS" FOUND 33  CATEGORIES 2  SEASONS WATER CATEGORY =  16  SNOW CATEGORY =  24
 INITIALIZE THREE Noah LSM RELATED TABLES
  LANDUSE TYPE = USGS FOUND 27  CATEGORIES
  INPUT SOIL TEXTURE CLASSIFICATION = STAS
  SOIL TEXTURE CLASSIFICATION = STAS FOUND 19  CATEGORIES
 *********************************************************************
 *             PROGRAM:WRF/CHEM V3.6 MODEL
 *                                                                   *
 *    PLEASE REPORT ANY BUGS TO WRF/CHEM HELP at                     *
 *                                                                   *
 *              wrfchemhelp.gsd@noaa.gov                             *
 *                                                                   *
 *********************************************************************
 WARNING: dust option 1 currently works only with the GOCART aerosol option.
 WARNING: sea salt option 1 currently works only with the GOCART aerosol option.
  *************************************
  Nesting domain
  ids,ide,jds,jde  1 361 1 253
  ims,ime,jms,jme  -4 48 -4 18
  ips,ipe,jps,jpe  1 36 1 7
  INTERMEDIATE domain
  ids,ide,jds,jde  74 199 47 136
  ims,ime,jms,jme  69 97 42 60
  ips,ipe,jps,jpe  72 87 45 50
  *************************************
 d01 2016-02-05_12:00:00  alloc_space_field: domain  2 ,  122968160  bytes allocated
 d01 2016-02-05_12:00:00  alloc_space_field: domain  2 ,  6940396  bytes allocated
 d01 2016-02-05_12:00:00 *** Initializing nest domain # 2 from an input file. ***
 d01 2016-02-05_12:00:00 med_initialdata_input: calling input_input
Timing for processing wrfinput file (stream 0) for domain        2:    6.38448 elapsed seconds
 INPUT LandUse = "USGS"
  LANDUSE TYPE = "USGS" FOUND 33  CATEGORIES 2  SEASONS WATER CATEGORY =  16  SNOW CATEGORY =  24
 INITIALIZE THREE Noah LSM RELATED TABLES
  LANDUSE TYPE = USGS FOUND 27  CATEGORIES
  INPUT SOIL TEXTURE CLASSIFICATION = STAS
  SOIL TEXTURE CLASSIFICATION = STAS FOUND 19  CATEGORIES
 *********************************************************************
 *             PROGRAM:WRF/CHEM V3.6 MODEL
 *                                                                   *
 *    PLEASE REPORT ANY BUGS TO WRF/CHEM HELP at                     *
 *                                                                   *
 *              wrfchemhelp.gsd@noaa.gov                             *
 *                                                                   *
 *********************************************************************
 WARNING: dust option 1 currently works only with the GOCART aerosol option.
 WARNING: sea salt option 1 currently works only with the GOCART aerosol option.
 INPUT LandUse = "USGS"
  LANDUSE TYPE = "USGS" FOUND 33  CATEGORIES 2  SEASONS WATER CATEGORY =  16  SNOW CATEGORY =  24
 INITIALIZE THREE Noah LSM RELATED TABLES
  LANDUSE TYPE = USGS FOUND 27  CATEGORIES
  INPUT SOIL TEXTURE CLASSIFICATION = STAS
  SOIL TEXTURE CLASSIFICATION = STAS FOUND 19  CATEGORIES
 *********************************************************************
 *             PROGRAM:WRF/CHEM V3.6 MODEL
 *                                                                   *
 *    PLEASE REPORT ANY BUGS TO WRF/CHEM HELP at                     *
 *                                                                   *
 *              wrfchemhelp.gsd@noaa.gov                             *
 *                                                                   *
 *********************************************************************
 WARNING: dust option 1 currently works only with the GOCART aerosol option.
 WARNING: sea salt option 1 currently works only with the GOCART aerosol option.
 INPUT LandUse = "USGS"
  LANDUSE TYPE = "USGS" FOUND 33  CATEGORIES 2  SEASONS WATER CATEGORY =  16  SNOW CATEGORY =  24
 INITIALIZE THREE Noah LSM RELATED TABLES
  LANDUSE TYPE = USGS FOUND 27  CATEGORIES
  INPUT SOIL TEXTURE CLASSIFICATION = STAS
  SOIL TEXTURE CLASSIFICATION = STAS FOUND 19  CATEGORIES
 *********************************************************************
 *             PROGRAM:WRF/CHEM V3.6 MODEL
 *                                                                   *
 *    PLEASE REPORT ANY BUGS TO WRF/CHEM HELP at                     *
 *                                                                   *
 *              wrfchemhelp.gsd@noaa.gov                             *
 *                                                                   *
 *********************************************************************
 WARNING: dust option 1 currently works only with the GOCART aerosol option.
 WARNING: sea salt option 1 currently works only with the GOCART aerosol option.
Timing for Writing wrfout_d01_2016-02-05_12:00:00 for domain        1:    2.38831 elapsed seconds
  mediation_integrate: med_read_wrf_chem_emissions: Open file wrfchemi_12z_d01
  HOURLY EMISSIONS UPDATE TIME         .0        .0
 mediation_integrate: med_read_wrf_chem_emissions: Read emissions for time 2016-02-05_12:00:00
 **WARNING** Time in input file not being checked **WARNING**
Timing for processing lateral boundary for domain        1:    3.74095 elapsed seconds
  Tile Strategy is not specified. Assuming 1D-Y
 WRF TILE   1 IS      1 IE     27 JS      1 JE      5
 WRF NUMBER OF TILES =   1
  photolysis_driver: called for domain  1
  *************************************
  Nesting domain
  ids,ide,jds,jde  1 307 1 241
  ims,ime,jms,jme  -4 42 -4 18
  ips,ipe,jps,jpe  1 31 1 6
  INTERMEDIATE domain
  ids,ide,jds,jde  124 231 35 120
  ims,ime,jms,jme  119 145 30 48
  ips,ipe,jps,jpe  122 135 33 38
  *************************************
 d02 2016-02-05_12:00:00  alloc_space_field: domain  3 ,  109421132  bytes allocated
 d02 2016-02-05_12:00:00  alloc_space_field: domain  3 ,  6461748  bytes allocated
 d02 2016-02-05_12:00:00 *** Initializing nest domain # 3 from an input file. ***
 d02 2016-02-05_12:00:00 med_initialdata_input: calling input_input
Timing for processing wrfinput file (stream 0) for domain        3:    5.24974 elapsed seconds
 INPUT LandUse = "USGS"
  LANDUSE TYPE = "USGS" FOUND 33  CATEGORIES 2  SEASONS WATER CATEGORY =  16  SNOW CATEGORY =  24
 INITIALIZE THREE Noah LSM RELATED TABLES
  LANDUSE TYPE = USGS FOUND 27  CATEGORIES
  INPUT SOIL TEXTURE CLASSIFICATION = STAS
  SOIL TEXTURE CLASSIFICATION = STAS FOUND 19  CATEGORIES
 *********************************************************************
 *             PROGRAM:WRF/CHEM V3.6 MODEL
 *                                                                   *
 *    PLEASE REPORT ANY BUGS TO WRF/CHEM HELP at                     *
 *                                                                   *
 *              wrfchemhelp.gsd@noaa.gov                             *
 *                                                                   *
 *********************************************************************
 WARNING: dust option 1 currently works only with the GOCART aerosol option.
 WARNING: sea salt option 1 currently works only with the GOCART aerosol option.
 INPUT LandUse = "USGS"
  LANDUSE TYPE = "USGS" FOUND 33  CATEGORIES 2  SEASONS WATER CATEGORY =  16  SNOW CATEGORY =  24
 INITIALIZE THREE Noah LSM RELATED TABLES
  LANDUSE TYPE = USGS FOUND 27  CATEGORIES
  INPUT SOIL TEXTURE CLASSIFICATION = STAS
  SOIL TEXTURE CLASSIFICATION = STAS FOUND 19  CATEGORIES
 *********************************************************************
 *             PROGRAM:WRF/CHEM V3.6 MODEL
 *                                                                   *
 *    PLEASE REPORT ANY BUGS TO WRF/CHEM HELP at                     *
 *                                                                   *
 *              wrfchemhelp.gsd@noaa.gov                             *
 *                                                                   *
 *********************************************************************
 WARNING: dust option 1 currently works only with the GOCART aerosol option.
 WARNING: sea salt option 1 currently works only with the GOCART aerosol option.
 INPUT LandUse = "USGS"
  LANDUSE TYPE = "USGS" FOUND 33  CATEGORIES 2  SEASONS WATER CATEGORY =  16  SNOW CATEGORY =  24
 INITIALIZE THREE Noah LSM RELATED TABLES
  LANDUSE TYPE = USGS FOUND 27  CATEGORIES
  INPUT SOIL TEXTURE CLASSIFICATION = STAS
  SOIL TEXTURE CLASSIFICATION = STAS FOUND 19  CATEGORIES
 *********************************************************************
 *             PROGRAM:WRF/CHEM V3.6 MODEL
 *                                                                   *
 *    PLEASE REPORT ANY BUGS TO WRF/CHEM HELP at                     *
 *                                                                   *
 *              wrfchemhelp.gsd@noaa.gov                             *
 *                                                                   *
 *********************************************************************
 WARNING: dust option 1 currently works only with the GOCART aerosol option.
 WARNING: sea salt option 1 currently works only with the GOCART aerosol option.
  *************************************
  Nesting domain
  ids,ide,jds,jde  1 217 1 388
  ims,ime,jms,jme  -4 33 -4 21
  ips,ipe,jps,jpe  1 22 1 10
  INTERMEDIATE domain
  ids,ide,jds,jde  225 302 83 217
  ims,ime,jms,jme  220 243 78 97
  ips,ipe,jps,jpe  223 233 81 87
  *************************************
 d02 2016-02-05_12:00:00  alloc_space_field: domain  4 ,  100122776  bytes allocated
 d02 2016-02-05_12:00:00  alloc_space_field: domain  4 ,  6046080  bytes allocated
 d02 2016-02-05_12:00:00 *** Initializing nest domain # 4 from an input file. ***
 d02 2016-02-05_12:00:00 med_initialdata_input: calling input_input
Timing for processing wrfinput file (stream 0) for domain        4:    6.23005 elapsed seconds
 INPUT LandUse = "USGS"
  LANDUSE TYPE = "USGS" FOUND 33  CATEGORIES 2  SEASONS WATER CATEGORY =  16  SNOW CATEGORY =  24
 INITIALIZE THREE Noah LSM RELATED TABLES
  LANDUSE TYPE = USGS FOUND 27  CATEGORIES
  INPUT SOIL TEXTURE CLASSIFICATION = STAS
  SOIL TEXTURE CLASSIFICATION = STAS FOUND 19  CATEGORIES
 *********************************************************************
 *             PROGRAM:WRF/CHEM V3.6 MODEL
 *                                                                   *
 *    PLEASE REPORT ANY BUGS TO WRF/CHEM HELP at                     *
 *                                                                   *
 *              wrfchemhelp.gsd@noaa.gov                             *
 *                                                                   *
 *********************************************************************
 WARNING: dust option 1 currently works only with the GOCART aerosol option.
 WARNING: sea salt option 1 currently works only with the GOCART aerosol option.
 INPUT LandUse = "USGS"
  LANDUSE TYPE = "USGS" FOUND 33  CATEGORIES 2  SEASONS WATER CATEGORY =  16  SNOW CATEGORY =  24
 INITIALIZE THREE Noah LSM RELATED TABLES
  LANDUSE TYPE = USGS FOUND 27  CATEGORIES
  INPUT SOIL TEXTURE CLASSIFICATION = STAS
  SOIL TEXTURE CLASSIFICATION = STAS FOUND 19  CATEGORIES
 *********************************************************************
 *             PROGRAM:WRF/CHEM V3.6 MODEL
 *                                                                   *
 *    PLEASE REPORT ANY BUGS TO WRF/CHEM HELP at                     *
 *                                                                   *
 *              wrfchemhelp.gsd@noaa.gov                             *
 *                                                                   *
 *********************************************************************
 WARNING: dust option 1 currently works only with the GOCART aerosol option.
 WARNING: sea salt option 1 currently works only with the GOCART aerosol option.
 INPUT LandUse = "USGS"
  LANDUSE TYPE = "USGS" FOUND 33  CATEGORIES 2  SEASONS WATER CATEGORY =  16  SNOW CATEGORY =  24
 INITIALIZE THREE Noah LSM RELATED TABLES
  LANDUSE TYPE = USGS FOUND 27  CATEGORIES
  INPUT SOIL TEXTURE CLASSIFICATION = STAS
  SOIL TEXTURE CLASSIFICATION = STAS FOUND 19  CATEGORIES
 *********************************************************************
 *             PROGRAM:WRF/CHEM V3.6 MODEL
 *                                                                   *
 *    PLEASE REPORT ANY BUGS TO WRF/CHEM HELP at                     *
 *                                                                   *
 *              wrfchemhelp.gsd@noaa.gov                             *
 *                                                                   *
 *********************************************************************
 WARNING: dust option 1 currently works only with the GOCART aerosol option.
 WARNING: sea salt option 1 currently works only with the GOCART aerosol option.
Timing for Writing wrfout_d02_2016-02-05_12:00:00 for domain        2:    2.66921 elapsed seconds
  mediation_integrate: med_read_wrf_chem_emissions: Open file wrfchemi_12z_d02
  HOURLY EMISSIONS UPDATE TIME         .0        .0
 mediation_integrate: med_read_wrf_chem_emissions: Read emissions for time 2016-02-05_12:00:00
 **WARNING** Time in input file not being checked **WARNING**
  Tile Strategy is not specified. Assuming 1D-Y
 WRF TILE   1 IS      1 IE     36 JS      1 JE      7
 WRF NUMBER OF TILES =   1
  photolysis_driver: called for domain  2
Timing for Writing wrfout_d03_2016-02-05_12:00:00 for domain        3:    2.47974 elapsed seconds
  mediation_integrate: med_read_wrf_chem_emissions: Open file wrfchemi_12z_d03
  HOURLY EMISSIONS UPDATE TIME         .0        .0
 mediation_integrate: med_read_wrf_chem_emissions: Read emissions for time 2016-02-05_12:00:00
 **WARNING** Time in input file not being checked **WARNING**
  Tile Strategy is not specified. Assuming 1D-Y
 WRF TILE   1 IS      1 IE     31 JS      1 JE      6
 WRF NUMBER OF TILES =   1
  photolysis_driver: called for domain  3
Timing for main: time 2016-02-05_12:00:13 on domain   3:    4.56404 elapsed seconds
Timing for main: time 2016-02-05_12:00:26 on domain   3:     .07260 elapsed seconds
Timing for main: time 2016-02-05_12:00:40 on domain   3:     .08940 elapsed seconds
Timing for Writing wrfout_d04_2016-02-05_12:00:00 for domain        4:    2.61417 elapsed seconds
  mediation_integrate: med_read_wrf_chem_emissions: Open file wrfchemi_12z_d04
  HOURLY EMISSIONS UPDATE TIME         .0        .0
 mediation_integrate: med_read_wrf_chem_emissions: Read emissions for time 2016-02-05_12:00:00
 **WARNING** Time in input file not being checked **WARNING**
  Tile Strategy is not specified. Assuming 1D-Y
 WRF TILE   1 IS      1 IE     22 JS      1 JE     10
 WRF NUMBER OF TILES =   1
  photolysis_driver: called for domain  4
Timing for main: time 2016-02-05_12:00:20 on domain   4:    6.14625 elapsed seconds
Timing for main: time 2016-02-05_12:00:40 on domain   4:     .56378 elapsed seconds
Timing for main: time 2016-02-05_12:00:40 on domain   2:   31.00268 elapsed seconds
Timing for main: time 2016-02-05_12:00:53 on domain   3:     .09993 elapsed seconds
Timing for main: time 2016-02-05_12:01:06 on domain   3:     .08976 elapsed seconds
Timing for main: time 2016-02-05_12:01:20 on domain   3:     .09312 elapsed seconds
Timing for main: time 2016-02-05_12:01:00 on domain   4:     .09997 elapsed seconds
Timing for main: time 2016-02-05_12:01:20 on domain   4:     .10476 elapsed seconds
Timing for main: time 2016-02-05_12:01:20 on domain   2:     .89513 elapsed seconds
Timing for main: time 2016-02-05_12:01:33 on domain   3:     .09857 elapsed seconds
Timing for main: time 2016-02-05_12:01:46 on domain   3:     .09166 elapsed seconds
Timing for main: time 2016-02-05_12:02:00 on domain   3:     .09423 elapsed seconds
Timing for main: time 2016-02-05_12:01:40 on domain   4:     .10122 elapsed seconds
Timing for main: time 2016-02-05_12:02:00 on domain   4:     .10649 elapsed seconds
Timing for main: time 2016-02-05_12:02:00 on domain   2:     .92987 elapsed seconds
Timing for main: time 2016-02-05_12:02:00 on domain   1:   49.72285 elapsed seconds
Timing for main: time 2016-02-05_12:02:13 on domain   3:     .09732 elapsed seconds
Timing for main: time 2016-02-05_12:02:26 on domain   3:     .08674 elapsed seconds
Timing for main: time 2016-02-05_12:02:40 on domain   3:     .09585 elapsed seconds
Timing for main: time 2016-02-05_12:02:20 on domain   4:     .10589 elapsed seconds
Timing for main: time 2016-02-05_12:02:40 on domain   4:     .10252 elapsed seconds
Timing for main: time 2016-02-05_12:02:40 on domain   2:     .92455 elapsed seconds
Timing for main: time 2016-02-05_12:02:53 on domain   3:     .09886 elapsed seconds
Timing for main: time 2016-02-05_12:03:06 on domain   3:     .09049 elapsed seconds
Timing for main: time 2016-02-05_12:03:20 on domain   3:     .09386 elapsed seconds
Timing for main: time 2016-02-05_12:03:00 on domain   4:     .10451 elapsed seconds
Timing for main: time 2016-02-05_12:03:20 on domain   4:     .09875 elapsed seconds
Timing for main: time 2016-02-05_12:03:20 on domain   2:     .91409 elapsed seconds
Timing for main: time 2016-02-05_12:03:33 on domain   3:     .09926 elapsed seconds
Timing for main: time 2016-02-05_12:03:46 on domain   3:     .08412 elapsed seconds
Timing for main: time 2016-02-05_12:04:00 on domain   3:     .09053 elapsed seconds
Timing for main: time 2016-02-05_12:03:40 on domain   4:     .09879 elapsed seconds
Timing for main: time 2016-02-05_12:04:00 on domain   4:     .10125 elapsed seconds
Timing for main: time 2016-02-05_12:04:00 on domain   2:     .92966 elapsed seconds
Timing for main: time 2016-02-05_12:04:00 on domain   1:    2.99596 elapsed seconds
Timing for main: time 2016-02-05_12:04:13 on domain   3:     .10207 elapsed seconds
Timing for main: time 2016-02-05_12:04:26 on domain   3:     .09140 elapsed seconds
Timing for main: time 2016-02-05_12:04:40 on domain   3:     .09370 elapsed seconds
Timing for main: time 2016-02-05_12:04:20 on domain   4:     .10072 elapsed seconds
Timing for main: time 2016-02-05_12:04:40 on domain   4:     .11614 elapsed seconds
Timing for main: time 2016-02-05_12:04:40 on domain   2:     .94489 elapsed seconds
Timing for main: time 2016-02-05_12:04:53 on domain   3:     .09824 elapsed seconds
Timing for main: time 2016-02-05_12:05:06 on domain   3:     .09598 elapsed seconds
Timing for main: time 2016-02-05_12:05:20 on domain   3:     .09459 elapsed seconds
Timing for main: time 2016-02-05_12:05:00 on domain   4:     .10647 elapsed seconds
Timing for main: time 2016-02-05_12:05:20 on domain   4:     .10800 elapsed seconds
Timing for main: time 2016-02-05_12:05:20 on domain   2:     .96936 elapsed seconds
Timing for main: time 2016-02-05_12:05:33 on domain   3:     .10002 elapsed seconds
Timing for main: time 2016-02-05_12:05:46 on domain   3:     .09264 elapsed seconds
Timing for main: time 2016-02-05_12:06:00 on domain   3:     .09382 elapsed seconds
Timing for main: time 2016-02-05_12:05:40 on domain   4:     .09882 elapsed seconds
Timing for main: time 2016-02-05_12:06:00 on domain   4:     .10360 elapsed seconds
Timing for main: time 2016-02-05_12:06:00 on domain   2:     .91685 elapsed seconds
Timing for main: time 2016-02-05_12:06:00 on domain   1:    3.07281 elapsed seconds
Timing for main: time 2016-02-05_12:06:13 on domain   3:     .09834 elapsed seconds
Timing for main: time 2016-02-05_12:06:26 on domain   3:     .09690 elapsed seconds
Timing for main: time 2016-02-05_12:06:40 on domain   3:     .08726 elapsed seconds
Timing for main: time 2016-02-05_12:06:20 on domain   4:     .09812 elapsed seconds
Timing for main: time 2016-02-05_12:06:40 on domain   4:     .10502 elapsed seconds
Timing for main: time 2016-02-05_12:06:40 on domain   2:     .92843 elapsed seconds
Timing for main: time 2016-02-05_12:06:53 on domain   3:     .09837 elapsed seconds
Timing for main: time 2016-02-05_12:07:06 on domain   3:     .09303 elapsed seconds
Timing for main: time 2016-02-05_12:07:20 on domain   3:     .09231 elapsed seconds
Timing for main: time 2016-02-05_12:07:00 on domain   4:     .10066 elapsed seconds
Timing for main: time 2016-02-05_12:07:20 on domain   4:     .09903 elapsed seconds
Timing for main: time 2016-02-05_12:07:20 on domain   2:     .91266 elapsed seconds
Timing for main: time 2016-02-05_12:07:33 on domain   3:     .09830 elapsed seconds
Timing for main: time 2016-02-05_12:07:46 on domain   3:     .09554 elapsed seconds
Timing for main: time 2016-02-05_12:08:00 on domain   3:     .09508 elapsed seconds
Timing for main: time 2016-02-05_12:07:40 on domain   4:     .10656 elapsed seconds
Timing for main: time 2016-02-05_12:08:00 on domain   4:     .13372 elapsed seconds
Timing for main: time 2016-02-05_12:08:00 on domain   2:     .96047 elapsed seconds
Timing for main: time 2016-02-05_12:08:00 on domain   1:    3.04737 elapsed seconds
Timing for main: time 2016-02-05_12:08:13 on domain   3:     .10050 elapsed seconds
Timing for main: time 2016-02-05_12:08:26 on domain   3:     .09397 elapsed seconds
Timing for main: time 2016-02-05_12:08:40 on domain   3:     .09037 elapsed seconds
Timing for main: time 2016-02-05_12:08:20 on domain   4:     .10295 elapsed seconds
Timing for main: time 2016-02-05_12:08:40 on domain   4:     .09988 elapsed seconds
Timing for main: time 2016-02-05_12:08:40 on domain   2:     .92274 elapsed seconds
Timing for main: time 2016-02-05_12:08:53 on domain   3:     .09903 elapsed seconds
Timing for main: time 2016-02-05_12:09:06 on domain   3:     .09166 elapsed seconds
Timing for main: time 2016-02-05_12:09:20 on domain   3:     .09113 elapsed seconds
Timing for main: time 2016-02-05_12:09:00 on domain   4:     .09966 elapsed seconds
Timing for main: time 2016-02-05_12:09:20 on domain   4:     .10483 elapsed seconds
Timing for main: time 2016-02-05_12:09:20 on domain   2:     .91595 elapsed seconds
Timing for main: time 2016-02-05_12:09:33 on domain   3:     .09789 elapsed seconds
Timing for main: time 2016-02-05_12:09:46 on domain   3:     .09297 elapsed seconds
Timing for main: time 2016-02-05_12:10:00 on domain   3:     .09069 elapsed seconds
Timing for main: time 2016-02-05_12:09:40 on domain   4:     .10030 elapsed seconds
Timing for main: time 2016-02-05_12:10:00 on domain   4:     .10779 elapsed seconds
Timing for main: time 2016-02-05_12:10:00 on domain   2:     .91921 elapsed seconds
Timing for main: time 2016-02-05_12:10:00 on domain   1:    2.99876 elapsed seconds
Timing for main: time 2016-02-05_12:10:13 on domain   3:     .10686 elapsed seconds
Timing for main: time 2016-02-05_12:10:26 on domain   3:     .10052 elapsed seconds
Timing for main: time 2016-02-05_12:10:40 on domain   3:     .09031 elapsed seconds
Timing for main: time 2016-02-05_12:10:20 on domain   4:     .10440 elapsed seconds
Timing for main: time 2016-02-05_12:10:40 on domain   4:     .09738 elapsed seconds
Timing for main: time 2016-02-05_12:10:40 on domain   2:     .96784 elapsed seconds
Timing for main: time 2016-02-05_12:10:53 on domain   3:     .09902 elapsed seconds
Timing for main: time 2016-02-05_12:11:06 on domain   3:     .09745 elapsed seconds
Timing for main: time 2016-02-05_12:11:20 on domain   3:     .09021 elapsed seconds
Timing for main: time 2016-02-05_12:11:00 on domain   4:     .10128 elapsed seconds
Timing for main: time 2016-02-05_12:11:20 on domain   4:     .10010 elapsed seconds
Timing for main: time 2016-02-05_12:11:20 on domain   2:     .93135 elapsed seconds
Timing for main: time 2016-02-05_12:11:33 on domain   3:     .09976 elapsed seconds
Timing for main: time 2016-02-05_12:11:46 on domain   3:     .08980 elapsed seconds
Timing for main: time 2016-02-05_12:12:00 on domain   3:     .09112 elapsed seconds
Timing for main: time 2016-02-05_12:11:40 on domain   4:     .10010 elapsed seconds
Timing for main: time 2016-02-05_12:12:00 on domain   4:     .09648 elapsed seconds
Timing for main: time 2016-02-05_12:12:00 on domain   2:     .93471 elapsed seconds
Timing for main: time 2016-02-05_12:12:00 on domain   1:    3.10775 elapsed seconds
Timing for main: time 2016-02-05_12:12:13 on domain   3:     .10169 elapsed seconds
Timing for main: time 2016-02-05_12:12:26 on domain   3:     .09371 elapsed seconds
Timing for main: time 2016-02-05_12:12:40 on domain   3:     .09302 elapsed seconds
Timing for main: time 2016-02-05_12:12:20 on domain   4:     .10245 elapsed seconds
Timing for main: time 2016-02-05_12:12:40 on domain   4:     .10203 elapsed seconds
Timing for main: time 2016-02-05_12:12:40 on domain   2:     .92455 elapsed seconds
Timing for main: time 2016-02-05_12:12:53 on domain   3:     .10000 elapsed seconds
Timing for main: time 2016-02-05_12:13:06 on domain   3:     .09094 elapsed seconds
Timing for main: time 2016-02-05_12:13:20 on domain   3:     .09078 elapsed seconds
Timing for main: time 2016-02-05_12:13:00 on domain   4:     .09971 elapsed seconds
Timing for main: time 2016-02-05_12:13:20 on domain   4:     .09634 elapsed seconds
Timing for main: time 2016-02-05_12:13:20 on domain   2:     .92390 elapsed seconds
Timing for main: time 2016-02-05_12:13:33 on domain   3:     .09841 elapsed seconds
Timing for main: time 2016-02-05_12:13:46 on domain   3:     .08805 elapsed seconds
Timing for main: time 2016-02-05_12:14:00 on domain   3:     .08842 elapsed seconds
Timing for main: time 2016-02-05_12:13:40 on domain   4:     .10740 elapsed seconds
Timing for main: time 2016-02-05_12:14:00 on domain   4:     .12574 elapsed seconds
Timing for main: time 2016-02-05_12:14:00 on domain   2:     .93266 elapsed seconds
Timing for main: time 2016-02-05_12:14:00 on domain   1:    3.01568 elapsed seconds
Timing for main: time 2016-02-05_12:14:13 on domain   3:     .10392 elapsed seconds
Timing for main: time 2016-02-05_12:14:26 on domain   3:     .11878 elapsed seconds
Timing for main: time 2016-02-05_12:14:40 on domain   3:     .09024 elapsed seconds
Timing for main: time 2016-02-05_12:14:20 on domain   4:     .09916 elapsed seconds
Timing for main: time 2016-02-05_12:14:40 on domain   4:     .09673 elapsed seconds
Timing for main: time 2016-02-05_12:14:40 on domain   2:     .94757 elapsed seconds
Timing for main: time 2016-02-05_12:14:53 on domain   3:     .09845 elapsed seconds
Timing for main: time 2016-02-05_12:15:06 on domain   3:     .09333 elapsed seconds
Timing for main: time 2016-02-05_12:15:20 on domain   3:     .09188 elapsed seconds
Timing for main: time 2016-02-05_12:15:00 on domain   4:     .10363 elapsed seconds
Timing for main: time 2016-02-05_12:15:20 on domain   4:     .09734 elapsed seconds
Timing for main: time 2016-02-05_12:15:20 on domain   2:     .90990 elapsed seconds
Timing for main: time 2016-02-05_12:15:33 on domain   3:     .09862 elapsed seconds
Timing for main: time 2016-02-05_12:15:46 on domain   3:     .08794 elapsed seconds
Timing for main: time 2016-02-05_12:16:00 on domain   3:     .08884 elapsed seconds
Timing for main: time 2016-02-05_12:15:40 on domain   4:     .09917 elapsed seconds
Timing for main: time 2016-02-05_12:16:00 on domain   4:     .09792 elapsed seconds
Timing for main: time 2016-02-05_12:16:00 on domain   2:     .90029 elapsed seconds
Timing for main: time 2016-02-05_12:16:00 on domain   1:    2.99442 elapsed seconds
Timing for main: time 2016-02-05_12:16:13 on domain   3:     .09857 elapsed seconds
Timing for main: time 2016-02-05_12:16:26 on domain   3:     .08686 elapsed seconds
Timing for main: time 2016-02-05_12:16:40 on domain   3:     .08784 elapsed seconds
Timing for main: time 2016-02-05_12:16:20 on domain   4:     .10091 elapsed seconds
Timing for main: time 2016-02-05_12:16:40 on domain   4:     .09724 elapsed seconds
Timing for main: time 2016-02-05_12:16:40 on domain   2:     .91432 elapsed seconds
Timing for main: time 2016-02-05_12:16:53 on domain   3:     .09854 elapsed seconds
Timing for main: time 2016-02-05_12:17:06 on domain   3:     .08936 elapsed seconds
Timing for main: time 2016-02-05_12:17:20 on domain   3:     .09176 elapsed seconds
Timing for main: time 2016-02-05_12:17:00 on domain   4:     .09890 elapsed seconds
Timing for main: time 2016-02-05_12:17:20 on domain   4:     .09846 elapsed seconds
Timing for main: time 2016-02-05_12:17:20 on domain   2:     .89937 elapsed seconds
Timing for main: time 2016-02-05_12:17:33 on domain   3:     .10230 elapsed seconds
Timing for main: time 2016-02-05_12:17:46 on domain   3:     .12336 elapsed seconds
Timing for main: time 2016-02-05_12:18:00 on domain   3:     .11870 elapsed seconds
Timing for main: time 2016-02-05_12:17:40 on domain   4:     .09984 elapsed seconds
Timing for main: time 2016-02-05_12:18:00 on domain   4:     .09831 elapsed seconds
Timing for main: time 2016-02-05_12:18:00 on domain   2:     .96878 elapsed seconds
Timing for main: time 2016-02-05_12:18:00 on domain   1:    3.04239 elapsed seconds
Timing for main: time 2016-02-05_12:18:13 on domain   3:     .09800 elapsed seconds
Timing for main: time 2016-02-05_12:18:26 on domain   3:     .08745 elapsed seconds
Timing for main: time 2016-02-05_12:18:40 on domain   3:     .09238 elapsed seconds
Timing for main: time 2016-02-05_12:18:20 on domain   4:     .09663 elapsed seconds
Timing for main: time 2016-02-05_12:18:40 on domain   4:     .09768 elapsed seconds
Timing for main: time 2016-02-05_12:18:40 on domain   2:     .91827 elapsed seconds
Timing for main: time 2016-02-05_12:18:53 on domain   3:     .09775 elapsed seconds
Timing for main: time 2016-02-05_12:19:06 on domain   3:     .08849 elapsed seconds
Timing for main: time 2016-02-05_12:19:20 on domain   3:     .08792 elapsed seconds
Timing for main: time 2016-02-05_12:19:00 on domain   4:     .09932 elapsed seconds
Timing for main: time 2016-02-05_12:19:20 on domain   4:     .10144 elapsed seconds
Timing for main: time 2016-02-05_12:19:20 on domain   2:     .90109 elapsed seconds
Timing for main: time 2016-02-05_12:19:33 on domain   3:     .09852 elapsed seconds
Timing for main: time 2016-02-05_12:19:46 on domain   3:     .08664 elapsed seconds
Timing for main: time 2016-02-05_12:20:00 on domain   3:     .08819 elapsed seconds
Timing for main: time 2016-02-05_12:19:40 on domain   4:     .10914 elapsed seconds
Timing for main: time 2016-02-05_12:20:00 on domain   4:     .11580 elapsed seconds
Timing for main: time 2016-02-05_12:20:00 on domain   2:     .92443 elapsed seconds
Timing for main: time 2016-02-05_12:20:00 on domain   1:    2.97719 elapsed seconds
Timing for main: time 2016-02-05_12:20:13 on domain   3:     .09803 elapsed seconds
Timing for main: time 2016-02-05_12:20:26 on domain   3:     .09110 elapsed seconds
Timing for main: time 2016-02-05_12:20:40 on domain   3:     .08796 elapsed seconds
Timing for main: time 2016-02-05_12:20:20 on domain   4:     .09920 elapsed seconds
Timing for main: time 2016-02-05_12:20:40 on domain   4:     .09736 elapsed seconds
Timing for main: time 2016-02-05_12:20:40 on domain   2:     .90638 elapsed seconds
Timing for main: time 2016-02-05_12:20:53 on domain   3:     .10403 elapsed seconds
Timing for main: time 2016-02-05_12:21:06 on domain   3:     .12812 elapsed seconds
Timing for main: time 2016-02-05_12:21:20 on domain   3:     .10608 elapsed seconds
Timing for main: time 2016-02-05_12:21:00 on domain   4:     .09912 elapsed seconds
Timing for main: time 2016-02-05_12:21:20 on domain   4:     .09795 elapsed seconds
Timing for main: time 2016-02-05_12:21:20 on domain   2:     .96486 elapsed seconds
Timing for main: time 2016-02-05_12:21:33 on domain   3:     .09851 elapsed seconds
Timing for main: time 2016-02-05_12:21:46 on domain   3:     .08713 elapsed seconds
Timing for main: time 2016-02-05_12:22:00 on domain   3:     .08897 elapsed seconds
Timing for main: time 2016-02-05_12:21:40 on domain   4:     .09960 elapsed seconds
Timing for main: time 2016-02-05_12:22:00 on domain   4:     .09753 elapsed seconds
Timing for main: time 2016-02-05_12:22:00 on domain   2:     .89758 elapsed seconds
Timing for main: time 2016-02-05_12:22:00 on domain   1:    3.00308 elapsed seconds
Timing for main: time 2016-02-05_12:22:13 on domain   3:     .09803 elapsed seconds
Timing for main: time 2016-02-05_12:22:26 on domain   3:     .08745 elapsed seconds
Timing for main: time 2016-02-05_12:22:40 on domain   3:     .08840 elapsed seconds
Timing for main: time 2016-02-05_12:22:20 on domain   4:     .09870 elapsed seconds
Timing for main: time 2016-02-05_12:22:40 on domain   4:     .10098 elapsed seconds
Timing for main: time 2016-02-05_12:22:40 on domain   2:     .90502 elapsed seconds
Timing for main: time 2016-02-05_12:22:53 on domain   3:     .11140 elapsed seconds
Timing for main: time 2016-02-05_12:23:06 on domain   3:     .11742 elapsed seconds
Timing for main: time 2016-02-05_12:23:20 on domain   3:     .10571 elapsed seconds
Timing for main: time 2016-02-05_12:23:00 on domain   4:     .10133 elapsed seconds
Timing for main: time 2016-02-05_12:23:20 on domain   4:     .09744 elapsed seconds
Timing for main: time 2016-02-05_12:23:20 on domain   2:     .95815 elapsed seconds
Timing for main: time 2016-02-05_12:23:33 on domain   3:     .09844 elapsed seconds
Timing for main: time 2016-02-05_12:23:46 on domain   3:     .08687 elapsed seconds
Timing for main: time 2016-02-05_12:24:00 on domain   3:     .08839 elapsed seconds
Timing for main: time 2016-02-05_12:23:40 on domain   4:     .09969 elapsed seconds
Timing for main: time 2016-02-05_12:24:00 on domain   4:     .09780 elapsed seconds
Timing for main: time 2016-02-05_12:24:00 on domain   2:     .89824 elapsed seconds
Timing for main: time 2016-02-05_12:24:00 on domain   1:    2.99696 elapsed seconds
Timing for main: time 2016-02-05_12:24:13 on domain   3:     .09791 elapsed seconds
Timing for main: time 2016-02-05_12:24:26 on domain   3:     .08935 elapsed seconds
Timing for main: time 2016-02-05_12:24:40 on domain   3:     .08872 elapsed seconds
Timing for main: time 2016-02-05_12:24:20 on domain   4:     .10086 elapsed seconds
Timing for main: time 2016-02-05_12:24:40 on domain   4:     .09780 elapsed seconds
Timing for main: time 2016-02-05_12:24:40 on domain   2:     .90691 elapsed seconds
Timing for main: time 2016-02-05_12:24:53 on domain   3:     .09848 elapsed seconds
Timing for main: time 2016-02-05_12:25:06 on domain   3:     .08462 elapsed seconds
Timing for main: time 2016-02-05_12:25:20 on domain   3:     .08721 elapsed seconds
Timing for main: time 2016-02-05_12:25:00 on domain   4:     .10283 elapsed seconds
Timing for main: time 2016-02-05_12:25:20 on domain   4:     .09848 elapsed seconds
Timing for main: time 2016-02-05_12:25:20 on domain   2:     .91603 elapsed seconds
Timing for main: time 2016-02-05_12:25:33 on domain   3:     .10142 elapsed seconds
Timing for main: time 2016-02-05_12:25:46 on domain   3:     .08802 elapsed seconds
Timing for main: time 2016-02-05_12:26:00 on domain   3:     .08864 elapsed seconds
Timing for main: time 2016-02-05_12:25:40 on domain   4:     .09803 elapsed seconds
Timing for main: time 2016-02-05_12:26:00 on domain   4:     .09810 elapsed seconds
Timing for main: time 2016-02-05_12:26:00 on domain   2:     .90019 elapsed seconds
Timing for main: time 2016-02-05_12:26:00 on domain   1:    2.95527 elapsed seconds
Timing for main: time 2016-02-05_12:26:13 on domain   3:     .09800 elapsed seconds
Timing for main: time 2016-02-05_12:26:26 on domain   3:     .08892 elapsed seconds
Timing for main: time 2016-02-05_12:26:40 on domain   3:     .08818 elapsed seconds
Timing for main: time 2016-02-05_12:26:20 on domain   4:     .09967 elapsed seconds
Timing for main: time 2016-02-05_12:26:40 on domain   4:     .09801 elapsed seconds
Timing for main: time 2016-02-05_12:26:40 on domain   2:     .90835 elapsed seconds
Timing for main: time 2016-02-05_12:26:53 on domain   3:     .09815 elapsed seconds
Timing for main: time 2016-02-05_12:27:06 on domain   3:     .08807 elapsed seconds
Timing for main: time 2016-02-05_12:27:20 on domain   3:     .08829 elapsed seconds
Timing for main: time 2016-02-05_12:27:00 on domain   4:     .09938 elapsed seconds
Timing for main: time 2016-02-05_12:27:20 on domain   4:     .09798 elapsed seconds
Timing for main: time 2016-02-05_12:27:20 on domain   2:     .89702 elapsed seconds
Timing for main: time 2016-02-05_12:27:33 on domain   3:     .09884 elapsed seconds
Timing for main: time 2016-02-05_12:27:46 on domain   3:     .08815 elapsed seconds
Timing for main: time 2016-02-05_12:28:00 on domain   3:     .08836 elapsed seconds
Timing for main: time 2016-02-05_12:27:40 on domain   4:     .09894 elapsed seconds
Timing for main: time 2016-02-05_12:28:00 on domain   4:     .09682 elapsed seconds
Timing for main: time 2016-02-05_12:28:00 on domain   2:     .89687 elapsed seconds
Timing for main: time 2016-02-05_12:28:00 on domain   1:    2.93399 elapsed seconds
  photolysis_driver: called for domain  1
Timing for main: time 2016-02-05_12:28:13 on domain   3:     .09838 elapsed seconds
Timing for main: time 2016-02-05_12:28:26 on domain   3:     .08699 elapsed seconds
Timing for main: time 2016-02-05_12:28:40 on domain   3:     .08937 elapsed seconds
Timing for main: time 2016-02-05_12:28:20 on domain   4:     .09929 elapsed seconds
Timing for main: time 2016-02-05_12:28:40 on domain   4:     .09923 elapsed seconds
Timing for main: time 2016-02-05_12:28:40 on domain   2:     .90592 elapsed seconds
Timing for main: time 2016-02-05_12:28:53 on domain   3:     .09862 elapsed seconds
Timing for main: time 2016-02-05_12:29:06 on domain   3:     .08996 elapsed seconds
Timing for main: time 2016-02-05_12:29:20 on domain   3:     .08781 elapsed seconds
Timing for main: time 2016-02-05_12:29:00 on domain   4:     .10632 elapsed seconds
Timing for main: time 2016-02-05_12:29:20 on domain   4:     .09768 elapsed seconds
Timing for main: time 2016-02-05_12:29:20 on domain   2:     .94388 elapsed seconds
  photolysis_driver: called for domain  2
Timing for main: time 2016-02-05_12:29:33 on domain   3:     .09980 elapsed seconds
Timing for main: time 2016-02-05_12:29:46 on domain   3:     .08925 elapsed seconds
  photolysis_driver: called for domain  3
Timing for main: time 2016-02-05_12:30:00 on domain   3:     .43861 elapsed seconds
Timing for main: time 2016-02-05_12:29:40 on domain   4:     .09905 elapsed seconds
  photolysis_driver: called for domain  4
Timing for main: time 2016-02-05_12:30:00 on domain   4:     .50992 elapsed seconds
Timing for main: time 2016-02-05_12:30:00 on domain   2:    2.12595 elapsed seconds
Timing for main: time 2016-02-05_12:30:00 on domain   1:    4.49806 elapsed seconds
Timing for main: time 2016-02-05_12:30:13 on domain   3:     .16561 elapsed seconds
Timing for main: time 2016-02-05_12:30:26 on domain   3:     .08705 elapsed seconds
Timing for main: time 2016-02-05_12:30:40 on domain   3:     .09094 elapsed seconds
Timing for main: time 2016-02-05_12:30:20 on domain   4:     .17907 elapsed seconds
Timing for main: time 2016-02-05_12:30:40 on domain   4:     .09750 elapsed seconds
Timing for main: time 2016-02-05_12:30:40 on domain   2:    1.14801 elapsed seconds
Timing for main: time 2016-02-05_12:30:53 on domain   3:     .09801 elapsed seconds
Timing for main: time 2016-02-05_12:31:06 on domain   3:     .09398 elapsed seconds
Timing for main: time 2016-02-05_12:31:20 on domain   3:     .08786 elapsed seconds
Timing for main: time 2016-02-05_12:31:00 on domain   4:     .10560 elapsed seconds
Timing for main: time 2016-02-05_12:31:20 on domain   4:     .09810 elapsed seconds
Timing for main: time 2016-02-05_12:31:20 on domain   2:     .90672 elapsed seconds
Timing for main: time 2016-02-05_12:31:33 on domain   3:     .09772 elapsed seconds
Timing for main: time 2016-02-05_12:31:46 on domain   3:     .08692 elapsed seconds
Timing for main: time 2016-02-05_12:32:00 on domain   3:     .08812 elapsed seconds
Timing for main: time 2016-02-05_12:31:40 on domain   4:     .10236 elapsed seconds
Timing for main: time 2016-02-05_12:32:00 on domain   4:     .10183 elapsed seconds
Timing for main: time 2016-02-05_12:32:00 on domain   2:     .90699 elapsed seconds
Timing for main: time 2016-02-05_12:32:00 on domain   1:    3.26131 elapsed seconds
Timing for main: time 2016-02-05_12:32:13 on domain   3:     .10068 elapsed seconds
Timing for main: time 2016-02-05_12:32:26 on domain   3:     .09012 elapsed seconds
Timing for main: time 2016-02-05_12:32:40 on domain   3:     .09252 elapsed seconds
Timing for main: time 2016-02-05_12:32:20 on domain   4:     .09876 elapsed seconds
Timing for main: time 2016-02-05_12:32:40 on domain   4:     .09752 elapsed seconds
Timing for main: time 2016-02-05_12:32:40 on domain   2:     .91077 elapsed seconds
Timing for main: time 2016-02-05_12:32:53 on domain   3:     .09855 elapsed seconds
Timing for main: time 2016-02-05_12:33:06 on domain   3:     .08565 elapsed seconds
Timing for main: time 2016-02-05_12:33:20 on domain   3:     .08760 elapsed seconds
Timing for main: time 2016-02-05_12:33:00 on domain   4:     .09833 elapsed seconds
Timing for main: time 2016-02-05_12:33:20 on domain   4:     .09730 elapsed seconds
Timing for main: time 2016-02-05_12:33:20 on domain   2:     .89426 elapsed seconds
Timing for main: time 2016-02-05_12:33:33 on domain   3:     .09713 elapsed seconds
Timing for main: time 2016-02-05_12:33:46 on domain   3:     .08699 elapsed seconds
Timing for main: time 2016-02-05_12:34:00 on domain   3:     .08759 elapsed seconds
Timing for main: time 2016-02-05_12:33:40 on domain   4:     .09884 elapsed seconds
Timing for main: time 2016-02-05_12:34:00 on domain   4:     .09683 elapsed seconds
Timing for main: time 2016-02-05_12:34:00 on domain   2:     .89303 elapsed seconds
Timing for main: time 2016-02-05_12:34:00 on domain   1:    2.93029 elapsed seconds
Timing for main: time 2016-02-05_12:34:13 on domain   3:     .09765 elapsed seconds
Timing for main: time 2016-02-05_12:34:26 on domain   3:     .08673 elapsed seconds
Timing for main: time 2016-02-05_12:34:40 on domain   3:     .08784 elapsed seconds
Timing for main: time 2016-02-05_12:34:20 on domain   4:     .09853 elapsed seconds
Timing for main: time 2016-02-05_12:34:40 on domain   4:     .09730 elapsed seconds
Timing for main: time 2016-02-05_12:34:40 on domain   2:     .89944 elapsed seconds
Timing for main: time 2016-02-05_12:34:53 on domain   3:     .09778 elapsed seconds
Timing for main: time 2016-02-05_12:35:06 on domain   3:     .08701 elapsed seconds
Timing for main: time 2016-02-05_12:35:20 on domain   3:     .08751 elapsed seconds
Timing for main: time 2016-02-05_12:35:00 on domain   4:     .10237 elapsed seconds
Timing for main: time 2016-02-05_12:35:20 on domain   4:     .09926 elapsed seconds
Timing for main: time 2016-02-05_12:35:20 on domain   2:     .89933 elapsed seconds
Timing for main: time 2016-02-05_12:35:33 on domain   3:     .09796 elapsed seconds
Timing for main: time 2016-02-05_12:35:46 on domain   3:     .09147 elapsed seconds
Timing for main: time 2016-02-05_12:36:00 on domain   3:     .08756 elapsed seconds
Timing for main: time 2016-02-05_12:35:40 on domain   4:     .09833 elapsed seconds
Timing for main: time 2016-02-05_12:36:00 on domain   4:     .09719 elapsed seconds
Timing for main: time 2016-02-05_12:36:00 on domain   2:     .89784 elapsed seconds
Timing for main: time 2016-02-05_12:36:00 on domain   1:    2.93355 elapsed seconds
Timing for main: time 2016-02-05_12:36:13 on domain   3:     .09803 elapsed seconds
Timing for main: time 2016-02-05_12:36:26 on domain   3:     .08622 elapsed seconds
Timing for main: time 2016-02-05_12:36:40 on domain   3:     .08741 elapsed seconds
Timing for main: time 2016-02-05_12:36:20 on domain   4:     .09845 elapsed seconds
Timing for main: time 2016-02-05_12:36:40 on domain   4:     .09842 elapsed seconds
Timing for main: time 2016-02-05_12:36:40 on domain   2:     .90041 elapsed seconds
Timing for main: time 2016-02-05_12:36:53 on domain   3:     .09757 elapsed seconds
Timing for main: time 2016-02-05_12:37:06 on domain   3:     .08849 elapsed seconds
Timing for main: time 2016-02-05_12:37:20 on domain   3:     .08938 elapsed seconds
Timing for main: time 2016-02-05_12:37:00 on domain   4:     .09824 elapsed seconds
Timing for main: time 2016-02-05_12:37:20 on domain   4:     .10050 elapsed seconds
Timing for main: time 2016-02-05_12:37:20 on domain   2:     .90446 elapsed seconds
Timing for main: time 2016-02-05_12:37:33 on domain   3:     .09804 elapsed seconds
Timing for main: time 2016-02-05_12:37:46 on domain   3:     .08775 elapsed seconds
Timing for main: time 2016-02-05_12:38:00 on domain   3:     .08767 elapsed seconds
Timing for main: time 2016-02-05_12:37:40 on domain   4:     .09896 elapsed seconds
Timing for main: time 2016-02-05_12:38:00 on domain   4:     .09593 elapsed seconds
Timing for main: time 2016-02-05_12:38:00 on domain   2:     .89312 elapsed seconds
Timing for main: time 2016-02-05_12:38:00 on domain   1:    2.93166 elapsed seconds
Timing for main: time 2016-02-05_12:38:13 on domain   3:     .09794 elapsed seconds
Timing for main: time 2016-02-05_12:38:26 on domain   3:     .08885 elapsed seconds
Timing for main: time 2016-02-05_12:38:40 on domain   3:     .08398 elapsed seconds
Timing for main: time 2016-02-05_12:38:20 on domain   4:     .09890 elapsed seconds
Timing for main: time 2016-02-05_12:38:40 on domain   4:     .09730 elapsed seconds
Timing for main: time 2016-02-05_12:38:40 on domain   2:     .90929 elapsed seconds
Timing for main: time 2016-02-05_12:38:53 on domain   3:     .09787 elapsed seconds
Timing for main: time 2016-02-05_12:39:06 on domain   3:     .09113 elapsed seconds
Timing for main: time 2016-02-05_12:39:20 on domain   3:     .08699 elapsed seconds
Timing for main: time 2016-02-05_12:39:00 on domain   4:     .09851 elapsed seconds
Timing for main: time 2016-02-05_12:39:20 on domain   4:     .09717 elapsed seconds
Timing for main: time 2016-02-05_12:39:20 on domain   2:     .89862 elapsed seconds
Timing for main: time 2016-02-05_12:39:33 on domain   3:     .09795 elapsed seconds
Timing for main: time 2016-02-05_12:39:46 on domain   3:     .09025 elapsed seconds
Timing for main: time 2016-02-05_12:40:00 on domain   3:     .08805 elapsed seconds
Timing for main: time 2016-02-05_12:39:40 on domain   4:     .10003 elapsed seconds
Timing for main: time 2016-02-05_12:40:00 on domain   4:     .10795 elapsed seconds
Timing for main: time 2016-02-05_12:40:00 on domain   2:     .90901 elapsed seconds
Timing for main: time 2016-02-05_12:40:00 on domain   1:    2.94951 elapsed seconds
Timing for main: time 2016-02-05_12:40:13 on domain   3:     .10281 elapsed seconds
Timing for main: time 2016-02-05_12:40:26 on domain   3:     .11601 elapsed seconds
Timing for main: time 2016-02-05_12:40:40 on domain   3:     .08715 elapsed seconds
Timing for main: time 2016-02-05_12:40:20 on domain   4:     .09906 elapsed seconds
Timing for main: time 2016-02-05_12:40:40 on domain   4:     .09687 elapsed seconds
Timing for main: time 2016-02-05_12:40:40 on domain   2:     .93320 elapsed seconds
Timing for main: time 2016-02-05_12:40:53 on domain   3:     .10770 elapsed seconds
Timing for main: time 2016-02-05_12:41:06 on domain   3:     .12549 elapsed seconds
Timing for main: time 2016-02-05_12:41:20 on domain   3:     .09012 elapsed seconds
Timing for main: time 2016-02-05_12:41:00 on domain   4:     .09900 elapsed seconds
Timing for main: time 2016-02-05_12:41:20 on domain   4:     .09597 elapsed seconds
Timing for main: time 2016-02-05_12:41:20 on domain   2:     .94559 elapsed seconds
Timing for main: time 2016-02-05_12:41:33 on domain   3:     .09777 elapsed seconds
Timing for main: time 2016-02-05_12:41:46 on domain   3:     .08768 elapsed seconds
Timing for main: time 2016-02-05_12:42:00 on domain   3:     .08808 elapsed seconds
Timing for main: time 2016-02-05_12:41:40 on domain   4:     .09859 elapsed seconds
Timing for main: time 2016-02-05_12:42:00 on domain   4:     .09855 elapsed seconds
Timing for main: time 2016-02-05_12:42:00 on domain   2:     .89668 elapsed seconds
Timing for main: time 2016-02-05_12:42:00 on domain   1:    3.01570 elapsed seconds
Timing for main: time 2016-02-05_12:42:13 on domain   3:     .09844 elapsed seconds
Timing for main: time 2016-02-05_12:42:26 on domain   3:     .08741 elapsed seconds
Timing for main: time 2016-02-05_12:42:40 on domain   3:     .08832 elapsed seconds
Timing for main: time 2016-02-05_12:42:20 on domain   4:     .09845 elapsed seconds
Timing for main: time 2016-02-05_12:42:40 on domain   4:     .09630 elapsed seconds
Timing for main: time 2016-02-05_12:42:40 on domain   2:     .90446 elapsed seconds
Timing for main: time 2016-02-05_12:42:53 on domain   3:     .09769 elapsed seconds
Timing for main: time 2016-02-05_12:43:06 on domain   3:     .08848 elapsed seconds
Timing for main: time 2016-02-05_12:43:20 on domain   3:     .08795 elapsed seconds
Timing for main: time 2016-02-05_12:43:00 on domain   4:     .09980 elapsed seconds
Timing for main: time 2016-02-05_12:43:20 on domain   4:     .09899 elapsed seconds
Timing for main: time 2016-02-05_12:43:20 on domain   2:     .89862 elapsed seconds
Timing for main: time 2016-02-05_12:43:33 on domain   3:     .09799 elapsed seconds
Timing for main: time 2016-02-05_12:43:46 on domain   3:     .08860 elapsed seconds
Timing for main: time 2016-02-05_12:44:00 on domain   3:     .08742 elapsed seconds
Timing for main: time 2016-02-05_12:43:40 on domain   4:     .10022 elapsed seconds
Timing for main: time 2016-02-05_12:44:00 on domain   4:     .09701 elapsed seconds
Timing for main: time 2016-02-05_12:44:00 on domain   2:     .89399 elapsed seconds
Timing for main: time 2016-02-05_12:44:00 on domain   1:    2.93055 elapsed seconds
Timing for main: time 2016-02-05_12:44:13 on domain   3:     .10642 elapsed seconds
Timing for main: time 2016-02-05_12:44:26 on domain   3:     .12297 elapsed seconds
Timing for main: time 2016-02-05_12:44:40 on domain   3:     .08867 elapsed seconds
Timing for main: time 2016-02-05_12:44:20 on domain   4:     .09894 elapsed seconds
Timing for main: time 2016-02-05_12:44:40 on domain   4:     .09792 elapsed seconds
Timing for main: time 2016-02-05_12:44:40 on domain   2:     .94643 elapsed seconds
Timing for main: time 2016-02-05_12:44:53 on domain   3:     .10228 elapsed seconds
Timing for main: time 2016-02-05_12:45:06 on domain   3:     .12588 elapsed seconds
Timing for main: time 2016-02-05_12:45:20 on domain   3:     .10807 elapsed seconds
Timing for main: time 2016-02-05_12:45:00 on domain   4:     .10259 elapsed seconds
Timing for main: time 2016-02-05_12:45:20 on domain   4:     .09737 elapsed seconds
Timing for main: time 2016-02-05_12:45:20 on domain   2:     .97278 elapsed seconds
Timing for main: time 2016-02-05_12:45:33 on domain   3:     .09927 elapsed seconds
Timing for main: time 2016-02-05_12:45:46 on domain   3:     .08848 elapsed seconds
Timing for main: time 2016-02-05_12:46:00 on domain   3:     .09056 elapsed seconds
Timing for main: time 2016-02-05_12:45:40 on domain   4:     .10029 elapsed seconds
Timing for main: time 2016-02-05_12:46:00 on domain   4:     .09769 elapsed seconds
Timing for main: time 2016-02-05_12:46:00 on domain   2:     .89797 elapsed seconds
Timing for main: time 2016-02-05_12:46:00 on domain   1:    3.07389 elapsed seconds
Timing for main: time 2016-02-05_12:46:13 on domain   3:     .09751 elapsed seconds
Timing for main: time 2016-02-05_12:46:26 on domain   3:     .08694 elapsed seconds
Timing for main: time 2016-02-05_12:46:40 on domain   3:     .08733 elapsed seconds
Timing for main: time 2016-02-05_12:46:20 on domain   4:     .09873 elapsed seconds
Timing for main: time 2016-02-05_12:46:40 on domain   4:     .09712 elapsed seconds
Timing for main: time 2016-02-05_12:46:40 on domain   2:     .89794 elapsed seconds
Timing for main: time 2016-02-05_12:46:53 on domain   3:     .09940 elapsed seconds
Timing for main: time 2016-02-05_12:47:06 on domain   3:     .09272 elapsed seconds
Timing for main: time 2016-02-05_12:47:20 on domain   3:     .08777 elapsed seconds
Timing for main: time 2016-02-05_12:47:00 on domain   4:     .09841 elapsed seconds
Timing for main: time 2016-02-05_12:47:20 on domain   4:     .09737 elapsed seconds
Timing for main: time 2016-02-05_12:47:20 on domain   2:     .90026 elapsed seconds
Timing for main: time 2016-02-05_12:47:33 on domain   3:     .09781 elapsed seconds
Timing for main: time 2016-02-05_12:47:46 on domain   3:     .08677 elapsed seconds
Timing for main: time 2016-02-05_12:48:00 on domain   3:     .08756 elapsed seconds
Timing for main: time 2016-02-05_12:47:40 on domain   4:     .09927 elapsed seconds
Timing for main: time 2016-02-05_12:48:00 on domain   4:     .09723 elapsed seconds
Timing for main: time 2016-02-05_12:48:00 on domain   2:     .89901 elapsed seconds
Timing for main: time 2016-02-05_12:48:00 on domain   1:    2.93322 elapsed seconds
Timing for main: time 2016-02-05_12:48:13 on domain   3:     .09784 elapsed seconds
Timing for main: time 2016-02-05_12:48:26 on domain   3:     .08687 elapsed seconds
Timing for main: time 2016-02-05_12:48:40 on domain   3:     .08762 elapsed seconds
Timing for main: time 2016-02-05_12:48:20 on domain   4:     .09850 elapsed seconds
Timing for main: time 2016-02-05_12:48:40 on domain   4:     .09693 elapsed seconds
Timing for main: time 2016-02-05_12:48:40 on domain   2:     .89819 elapsed seconds
Timing for main: time 2016-02-05_12:48:53 on domain   3:     .09805 elapsed seconds
Timing for main: time 2016-02-05_12:49:06 on domain   3:     .08645 elapsed seconds
Timing for main: time 2016-02-05_12:49:20 on domain   3:     .08905 elapsed seconds
Timing for main: time 2016-02-05_12:49:00 on domain   4:     .09857 elapsed seconds
Timing for main: time 2016-02-05_12:49:20 on domain   4:     .09740 elapsed seconds
Timing for main: time 2016-02-05_12:49:20 on domain   2:     .89508 elapsed seconds
Timing for main: time 2016-02-05_12:49:33 on domain   3:     .09786 elapsed seconds
Timing for main: time 2016-02-05_12:49:46 on domain   3:     .08853 elapsed seconds
Timing for main: time 2016-02-05_12:50:00 on domain   3:     .08754 elapsed seconds
Timing for main: time 2016-02-05_12:49:40 on domain   4:     .09931 elapsed seconds
Timing for main: time 2016-02-05_12:50:00 on domain   4:     .10108 elapsed seconds
Timing for main: time 2016-02-05_12:50:00 on domain   2:     .90182 elapsed seconds
Timing for main: time 2016-02-05_12:50:00 on domain   1:    2.92894 elapsed seconds
Timing for main: time 2016-02-05_12:50:13 on domain   3:     .09742 elapsed seconds
Timing for main: time 2016-02-05_12:50:26 on domain   3:     .08708 elapsed seconds
Timing for main: time 2016-02-05_12:50:40 on domain   3:     .08752 elapsed seconds
Timing for main: time 2016-02-05_12:50:20 on domain   4:     .09888 elapsed seconds
Timing for main: time 2016-02-05_12:50:40 on domain   4:     .09709 elapsed seconds
Timing for main: time 2016-02-05_12:50:40 on domain   2:     .89910 elapsed seconds
Timing for main: time 2016-02-05_12:50:53 on domain   3:     .09811 elapsed seconds
Timing for main: time 2016-02-05_12:51:06 on domain   3:     .09059 elapsed seconds
Timing for main: time 2016-02-05_12:51:20 on domain   3:     .08822 elapsed seconds
Timing for main: time 2016-02-05_12:51:00 on domain   4:     .09801 elapsed seconds
Timing for main: time 2016-02-05_12:51:20 on domain   4:     .10575 elapsed seconds
Timing for main: time 2016-02-05_12:51:20 on domain   2:     .91563 elapsed seconds
Timing for main: time 2016-02-05_12:51:33 on domain   3:     .09864 elapsed seconds
Timing for main: time 2016-02-05_12:51:46 on domain   3:     .08830 elapsed seconds
Timing for main: time 2016-02-05_12:52:00 on domain   3:     .08385 elapsed seconds
Timing for main: time 2016-02-05_12:51:40 on domain   4:     .09968 elapsed seconds
Timing for main: time 2016-02-05_12:52:00 on domain   4:     .09657 elapsed seconds
Timing for main: time 2016-02-05_12:52:00 on domain   2:     .91026 elapsed seconds
Timing for main: time 2016-02-05_12:52:00 on domain   1:    2.95767 elapsed seconds
Timing for main: time 2016-02-05_12:52:13 on domain   3:     .09798 elapsed seconds
Timing for main: time 2016-02-05_12:52:26 on domain   3:     .08637 elapsed seconds
Timing for main: time 2016-02-05_12:52:40 on domain   3:     .08686 elapsed seconds
Timing for main: time 2016-02-05_12:52:20 on domain   4:     .10375 elapsed seconds
Timing for main: time 2016-02-05_12:52:40 on domain   4:     .09941 elapsed seconds
Timing for main: time 2016-02-05_12:52:40 on domain   2:     .90999 elapsed seconds
Timing for main: time 2016-02-05_12:52:53 on domain   3:     .09766 elapsed seconds
Timing for main: time 2016-02-05_12:53:06 on domain   3:     .08747 elapsed seconds
Timing for main: time 2016-02-05_12:53:20 on domain   3:     .08798 elapsed seconds
Timing for main: time 2016-02-05_12:53:00 on domain   4:     .09877 elapsed seconds
Timing for main: time 2016-02-05_12:53:20 on domain   4:     .09727 elapsed seconds
Timing for main: time 2016-02-05_12:53:20 on domain   2:     .90494 elapsed seconds
Timing for main: time 2016-02-05_12:53:33 on domain   3:     .09771 elapsed seconds
Timing for main: time 2016-02-05_12:53:46 on domain   3:     .08762 elapsed seconds
Timing for main: time 2016-02-05_12:54:00 on domain   3:     .08737 elapsed seconds
Timing for main: time 2016-02-05_12:53:40 on domain   4:     .09791 elapsed seconds
Timing for main: time 2016-02-05_12:54:00 on domain   4:     .09685 elapsed seconds
Timing for main: time 2016-02-05_12:54:00 on domain   2:     .89590 elapsed seconds
Timing for main: time 2016-02-05_12:54:00 on domain   1:    2.94945 elapsed seconds
Timing for main: time 2016-02-05_12:54:13 on domain   3:     .09780 elapsed seconds
Timing for main: time 2016-02-05_12:54:26 on domain   3:     .08766 elapsed seconds
Timing for main: time 2016-02-05_12:54:40 on domain   3:     .08821 elapsed seconds
Timing for main: time 2016-02-05_12:54:20 on domain   4:     .09882 elapsed seconds
Timing for main: time 2016-02-05_12:54:40 on domain   4:     .09752 elapsed seconds
Timing for main: time 2016-02-05_12:54:40 on domain   2:     .89978 elapsed seconds
Timing for main: time 2016-02-05_12:54:53 on domain   3:     .09779 elapsed seconds
Timing for main: time 2016-02-05_12:55:06 on domain   3:     .08782 elapsed seconds
Timing for main: time 2016-02-05_12:55:20 on domain   3:     .08735 elapsed seconds
Timing for main: time 2016-02-05_12:55:00 on domain   4:     .10256 elapsed seconds
Timing for main: time 2016-02-05_12:55:20 on domain   4:     .09629 elapsed seconds
Timing for main: time 2016-02-05_12:55:20 on domain   2:     .89709 elapsed seconds
Timing for main: time 2016-02-05_12:55:33 on domain   3:     .09753 elapsed seconds
Timing for main: time 2016-02-05_12:55:46 on domain   3:     .08779 elapsed seconds
Timing for main: time 2016-02-05_12:56:00 on domain   3:     .08760 elapsed seconds
Timing for main: time 2016-02-05_12:55:40 on domain   4:     .10041 elapsed seconds
Timing for main: time 2016-02-05_12:56:00 on domain   4:     .09384 elapsed seconds
Timing for main: time 2016-02-05_12:56:00 on domain   2:     .89946 elapsed seconds
Timing for main: time 2016-02-05_12:56:00 on domain   1:    2.92803 elapsed seconds
Timing for main: time 2016-02-05_12:56:13 on domain   3:     .10452 elapsed seconds
Timing for main: time 2016-02-05_12:56:26 on domain   3:     .08786 elapsed seconds
Timing for main: time 2016-02-05_12:56:40 on domain   3:     .08749 elapsed seconds
Timing for main: time 2016-02-05_12:56:20 on domain   4:     .11577 elapsed seconds
Timing for main: time 2016-02-05_12:56:40 on domain   4:     .11387 elapsed seconds
Timing for main: time 2016-02-05_12:56:40 on domain   2:     .95205 elapsed seconds
Timing for main: time 2016-02-05_12:56:53 on domain   3:     .10079 elapsed seconds
Timing for main: time 2016-02-05_12:57:06 on domain   3:     .12250 elapsed seconds
Timing for main: time 2016-02-05_12:57:20 on domain   3:     .09726 elapsed seconds
Timing for main: time 2016-02-05_12:57:00 on domain   4:     .10141 elapsed seconds
Timing for main: time 2016-02-05_12:57:20 on domain   4:     .09584 elapsed seconds
Timing for main: time 2016-02-05_12:57:20 on domain   2:     .96785 elapsed seconds
Timing for main: time 2016-02-05_12:57:33 on domain   3:     .09783 elapsed seconds
Timing for main: time 2016-02-05_12:57:46 on domain   3:     .08787 elapsed seconds
Timing for main: time 2016-02-05_12:58:00 on domain   3:     .08783 elapsed seconds
Timing for main: time 2016-02-05_12:57:40 on domain   4:     .09664 elapsed seconds
Timing for main: time 2016-02-05_12:58:00 on domain   4:     .09701 elapsed seconds
Timing for main: time 2016-02-05_12:58:00 on domain   2:     .89391 elapsed seconds
Timing for main: time 2016-02-05_12:58:00 on domain   1:    3.04425 elapsed seconds
  photolysis_driver: called for domain  1
Timing for main: time 2016-02-05_12:58:13 on domain   3:     .09834 elapsed seconds
Timing for main: time 2016-02-05_12:58:26 on domain   3:     .08755 elapsed seconds
Timing for main: time 2016-02-05_12:58:40 on domain   3:     .08408 elapsed seconds
Timing for main: time 2016-02-05_12:58:20 on domain   4:     .09916 elapsed seconds
Timing for main: time 2016-02-05_12:58:40 on domain   4:     .09739 elapsed seconds
Timing for main: time 2016-02-05_12:58:40 on domain   2:     .91947 elapsed seconds
Timing for main: time 2016-02-05_12:58:53 on domain   3:     .09800 elapsed seconds
Timing for main: time 2016-02-05_12:59:06 on domain   3:     .09058 elapsed seconds
Timing for main: time 2016-02-05_12:59:20 on domain   3:     .08944 elapsed seconds
Timing for main: time 2016-02-05_12:59:00 on domain   4:     .09868 elapsed seconds
Timing for main: time 2016-02-05_12:59:20 on domain   4:     .09621 elapsed seconds
Timing for main: time 2016-02-05_12:59:20 on domain   2:     .89686 elapsed seconds
  photolysis_driver: called for domain  2
Timing for main: time 2016-02-05_12:59:33 on domain   3:     .09794 elapsed seconds
Timing for main: time 2016-02-05_12:59:46 on domain   3:     .08639 elapsed seconds
  photolysis_driver: called for domain  3
Timing for main: time 2016-02-05_13:00:00 on domain   3:     .44782 elapsed seconds
Timing for main: time 2016-02-05_12:59:40 on domain   4:     .09748 elapsed seconds
  photolysis_driver: called for domain  4
Timing for main: time 2016-02-05_13:00:00 on domain   4:     .50897 elapsed seconds
Timing for main: time 2016-02-05_13:00:00 on domain   2:    2.13541 elapsed seconds
Timing for main: time 2016-02-05_13:00:00 on domain   1:    4.47005 elapsed seconds
Timing for Writing wrfout_d01_2016-02-05_13:00:00 for domain        1:    2.12324 elapsed seconds
  HOURLY EMISSIONS UPDATE TIME     3600.0        .0
 mediation_integrate: med_read_wrf_chem_emissions: Read emissions for time 2016-02-05_13:00:00
 **WARNING** Time in input file not being checked **WARNING**
Timing for Writing wrfout_d02_2016-02-05_13:00:00 for domain        2:    2.71464 elapsed seconds
Timing for Writing wrfout_d03_2016-02-05_13:00:00 for domain        3:    2.66839 elapsed seconds
Timing for main: time 2016-02-05_13:00:13 on domain   3:    2.83037 elapsed seconds
Timing for main: time 2016-02-05_13:00:26 on domain   3:     .09576 elapsed seconds
Timing for main: time 2016-02-05_13:00:40 on domain   3:     .10123 elapsed seconds
Timing for Writing wrfout_d04_2016-02-05_13:00:00 for domain        4:    2.60772 elapsed seconds
Timing for main: time 2016-02-05_13:00:20 on domain   4:    2.79908 elapsed seconds
Timing for main: time 2016-02-05_13:00:40 on domain   4:     .11106 elapsed seconds
Timing for main: time 2016-02-05_13:00:40 on domain   2:    9.18617 elapsed seconds
Timing for main: time 2016-02-05_13:00:53 on domain   3:     .09994 elapsed seconds
Timing for main: time 2016-02-05_13:01:06 on domain   3:     .08797 elapsed seconds
Timing for main: time 2016-02-05_13:01:20 on domain   3:     .09232 elapsed seconds
Timing for main: time 2016-02-05_13:01:00 on domain   4:     .09777 elapsed seconds
Timing for main: time 2016-02-05_13:01:20 on domain   4:     .09724 elapsed seconds
Timing for main: time 2016-02-05_13:01:20 on domain   2:     .90675 elapsed seconds
Timing for main: time 2016-02-05_13:01:33 on domain   3:     .09804 elapsed seconds
Timing for main: time 2016-02-05_13:01:46 on domain   3:     .08776 elapsed seconds
Timing for main: time 2016-02-05_13:02:00 on domain   3:     .08742 elapsed seconds
Timing for main: time 2016-02-05_13:01:40 on domain   4:     .09809 elapsed seconds
Timing for main: time 2016-02-05_13:02:00 on domain   4:     .09581 elapsed seconds
Timing for main: time 2016-02-05_13:02:00 on domain   2:     .89370 elapsed seconds
Timing for main: time 2016-02-05_13:02:00 on domain   1:   14.05435 elapsed seconds
Timing for main: time 2016-02-05_13:02:13 on domain   3:     .09807 elapsed seconds
Timing for main: time 2016-02-05_13:02:26 on domain   3:     .08853 elapsed seconds
Timing for main: time 2016-02-05_13:02:40 on domain   3:     .08827 elapsed seconds
Timing for main: time 2016-02-05_13:02:20 on domain   4:     .09768 elapsed seconds
Timing for main: time 2016-02-05_13:02:40 on domain   4:     .09637 elapsed seconds
Timing for main: time 2016-02-05_13:02:40 on domain   2:     .90287 elapsed seconds
Timing for main: time 2016-02-05_13:02:53 on domain   3:     .09796 elapsed seconds
Timing for main: time 2016-02-05_13:03:06 on domain   3:     .08729 elapsed seconds
Timing for main: time 2016-02-05_13:03:20 on domain   3:     .09546 elapsed seconds
Timing for main: time 2016-02-05_13:03:00 on domain   4:     .09825 elapsed seconds
Timing for main: time 2016-02-05_13:03:20 on domain   4:     .09627 elapsed seconds
Timing for main: time 2016-02-05_13:03:20 on domain   2:     .90877 elapsed seconds
Timing for main: time 2016-02-05_13:03:33 on domain   3:     .09791 elapsed seconds
Timing for main: time 2016-02-05_13:03:46 on domain   3:     .08889 elapsed seconds
Timing for main: time 2016-02-05_13:04:00 on domain   3:     .08735 elapsed seconds
Timing for main: time 2016-02-05_13:03:40 on domain   4:     .09860 elapsed seconds
Timing for main: time 2016-02-05_13:04:00 on domain   4:     .12742 elapsed seconds
Timing for main: time 2016-02-05_13:04:00 on domain   2:     .95299 elapsed seconds
Timing for main: time 2016-02-05_13:04:00 on domain   1:    3.00236 elapsed seconds
Timing for main: time 2016-02-05_13:04:13 on domain   3:     .09813 elapsed seconds
Timing for main: time 2016-02-05_13:04:26 on domain   3:     .09028 elapsed seconds
Timing for main: time 2016-02-05_13:04:40 on domain   3:     .08901 elapsed seconds
Timing for main: time 2016-02-05_13:04:20 on domain   4:     .09869 elapsed seconds
Timing for main: time 2016-02-05_13:04:40 on domain   4:     .09616 elapsed seconds
Timing for main: time 2016-02-05_13:04:40 on domain   2:     .90482 elapsed seconds
Timing for main: time 2016-02-05_13:04:53 on domain   3:     .09809 elapsed seconds
Timing for main: time 2016-02-05_13:05:06 on domain   3:     .08805 elapsed seconds
Timing for main: time 2016-02-05_13:05:20 on domain   3:     .08675 elapsed seconds
Timing for main: time 2016-02-05_13:05:00 on domain   4:     .10265 elapsed seconds
Timing for main: time 2016-02-05_13:05:20 on domain   4:     .09622 elapsed seconds
Timing for main: time 2016-02-05_13:05:20 on domain   2:     .89749 elapsed seconds
Timing for main: time 2016-02-05_13:05:33 on domain   3:     .09812 elapsed seconds
Timing for main: time 2016-02-05_13:05:46 on domain   3:     .08719 elapsed seconds
Timing for main: time 2016-02-05_13:06:00 on domain   3:     .08795 elapsed seconds
Timing for main: time 2016-02-05_13:05:40 on domain   4:     .09853 elapsed seconds
Timing for main: time 2016-02-05_13:06:00 on domain   4:     .09807 elapsed seconds
Timing for main: time 2016-02-05_13:06:00 on domain   2:     .90113 elapsed seconds
Timing for main: time 2016-02-05_13:06:00 on domain   1:    3.00515 elapsed seconds
Timing for main: time 2016-02-05_13:06:13 on domain   3:     .10069 elapsed seconds
Timing for main: time 2016-02-05_13:06:26 on domain   3:     .09025 elapsed seconds
Timing for main: time 2016-02-05_13:06:40 on domain   3:     .08770 elapsed seconds
Timing for main: time 2016-02-05_13:06:20 on domain   4:     .09893 elapsed seconds
Timing for main: time 2016-02-05_13:06:40 on domain   4:     .09386 elapsed seconds
Timing for main: time 2016-02-05_13:06:40 on domain   2:     .91836 elapsed seconds
Timing for main: time 2016-02-05_13:06:53 on domain   3:     .09787 elapsed seconds
Timing for main: time 2016-02-05_13:07:06 on domain   3:     .08746 elapsed seconds
Timing for main: time 2016-02-05_13:07:20 on domain   3:     .09034 elapsed seconds
Timing for main: time 2016-02-05_13:07:00 on domain   4:     .09917 elapsed seconds
Timing for main: time 2016-02-05_13:07:20 on domain   4:     .09808 elapsed seconds
Timing for main: time 2016-02-05_13:07:20 on domain   2:     .89559 elapsed seconds
Timing for main: time 2016-02-05_13:07:33 on domain   3:     .09807 elapsed seconds
Timing for main: time 2016-02-05_13:07:46 on domain   3:     .08660 elapsed seconds
Timing for main: time 2016-02-05_13:08:00 on domain   3:     .09089 elapsed seconds
Timing for main: time 2016-02-05_13:07:40 on domain   4:     .09859 elapsed seconds
Timing for main: time 2016-02-05_13:08:00 on domain   4:     .12594 elapsed seconds
Timing for main: time 2016-02-05_13:08:00 on domain   2:     .92521 elapsed seconds
Timing for main: time 2016-02-05_13:08:00 on domain   1:    2.96722 elapsed seconds
Timing for main: time 2016-02-05_13:08:13 on domain   3:     .09780 elapsed seconds
Timing for main: time 2016-02-05_13:08:26 on domain   3:     .08726 elapsed seconds
Timing for main: time 2016-02-05_13:08:40 on domain   3:     .08696 elapsed seconds
Timing for main: time 2016-02-05_13:08:20 on domain   4:     .09930 elapsed seconds
Timing for main: time 2016-02-05_13:08:40 on domain   4:     .09754 elapsed seconds
Timing for main: time 2016-02-05_13:08:40 on domain   2:     .90924 elapsed seconds
Timing for main: time 2016-02-05_13:08:53 on domain   3:     .09785 elapsed seconds
Timing for main: time 2016-02-05_13:09:06 on domain   3:     .08634 elapsed seconds
Timing for main: time 2016-02-05_13:09:20 on domain   3:     .08868 elapsed seconds
Timing for main: time 2016-02-05_13:09:00 on domain   4:     .09927 elapsed seconds
Timing for main: time 2016-02-05_13:09:20 on domain   4:     .09726 elapsed seconds
Timing for main: time 2016-02-05_13:09:20 on domain   2:     .89601 elapsed seconds
Timing for main: time 2016-02-05_13:09:33 on domain   3:     .09795 elapsed seconds
Timing for main: time 2016-02-05_13:09:46 on domain   3:     .08663 elapsed seconds
Timing for main: time 2016-02-05_13:10:00 on domain   3:     .08909 elapsed seconds
Timing for main: time 2016-02-05_13:09:40 on domain   4:     .09858 elapsed seconds
Timing for main: time 2016-02-05_13:10:00 on domain   4:     .10154 elapsed seconds
Timing for main: time 2016-02-05_13:10:00 on domain   2:     .89768 elapsed seconds
Timing for main: time 2016-02-05_13:10:00 on domain   1:    3.01315 elapsed seconds
Timing for main: time 2016-02-05_13:10:13 on domain   3:     .09742 elapsed seconds
Timing for main: time 2016-02-05_13:10:26 on domain   3:     .08709 elapsed seconds
Timing for main: time 2016-02-05_13:10:40 on domain   3:     .08760 elapsed seconds
Timing for main: time 2016-02-05_13:10:20 on domain   4:     .09867 elapsed seconds
Timing for main: time 2016-02-05_13:10:40 on domain   4:     .09711 elapsed seconds
Timing for main: time 2016-02-05_13:10:40 on domain   2:     .89871 elapsed seconds
Timing for main: time 2016-02-05_13:10:53 on domain   3:     .09832 elapsed seconds
Timing for main: time 2016-02-05_13:11:06 on domain   3:     .08932 elapsed seconds
Timing for main: time 2016-02-05_13:11:20 on domain   3:     .08710 elapsed seconds
Timing for main: time 2016-02-05_13:11:00 on domain   4:     .09947 elapsed seconds
Timing for main: time 2016-02-05_13:11:20 on domain   4:     .09727 elapsed seconds
Timing for main: time 2016-02-05_13:11:20 on domain   2:     .89711 elapsed seconds
Timing for main: time 2016-02-05_13:11:33 on domain   3:     .10214 elapsed seconds
Timing for main: time 2016-02-05_13:11:46 on domain   3:     .08652 elapsed seconds
Timing for main: time 2016-02-05_13:12:00 on domain   3:     .08782 elapsed seconds
Timing for main: time 2016-02-05_13:11:40 on domain   4:     .09854 elapsed seconds
Timing for main: time 2016-02-05_13:12:00 on domain   4:     .09763 elapsed seconds
Timing for main: time 2016-02-05_13:12:00 on domain   2:     .89736 elapsed seconds
Timing for main: time 2016-02-05_13:12:00 on domain   1:    2.92766 elapsed seconds
Timing for main: time 2016-02-05_13:12:13 on domain   3:     .09802 elapsed seconds
Timing for main: time 2016-02-05_13:12:26 on domain   3:     .08662 elapsed seconds
Timing for main: time 2016-02-05_13:12:40 on domain   3:     .08724 elapsed seconds
Timing for main: time 2016-02-05_13:12:20 on domain   4:     .09920 elapsed seconds
Timing for main: time 2016-02-05_13:12:40 on domain   4:     .09721 elapsed seconds
Timing for main: time 2016-02-05_13:12:40 on domain   2:     .89965 elapsed seconds
Timing for main: time 2016-02-05_13:12:53 on domain   3:     .09746 elapsed seconds
Timing for main: time 2016-02-05_13:13:06 on domain   3:     .08937 elapsed seconds
Timing for main: time 2016-02-05_13:13:20 on domain   3:     .08756 elapsed seconds
Timing for main: time 2016-02-05_13:13:00 on domain   4:     .09858 elapsed seconds
Timing for main: time 2016-02-05_13:13:20 on domain   4:     .09743 elapsed seconds
Timing for main: time 2016-02-05_13:13:20 on domain   2:     .89757 elapsed seconds
Timing for main: time 2016-02-05_13:13:33 on domain   3:     .09827 elapsed seconds
Timing for main: time 2016-02-05_13:13:46 on domain   3:     .08757 elapsed seconds
Timing for main: time 2016-02-05_13:14:00 on domain   3:     .08444 elapsed seconds
Timing for main: time 2016-02-05_13:13:40 on domain   4:     .09823 elapsed seconds
Timing for main: time 2016-02-05_13:14:00 on domain   4:     .09731 elapsed seconds
Timing for main: time 2016-02-05_13:14:00 on domain   2:     .90807 elapsed seconds
Timing for main: time 2016-02-05_13:14:00 on domain   1:    2.93893 elapsed seconds
Timing for main: time 2016-02-05_13:14:13 on domain   3:     .10474 elapsed seconds
Timing for main: time 2016-02-05_13:14:26 on domain   3:     .11592 elapsed seconds
Timing for main: time 2016-02-05_13:14:40 on domain   3:     .10797 elapsed seconds
Timing for main: time 2016-02-05_13:14:20 on domain   4:     .09899 elapsed seconds
Timing for main: time 2016-02-05_13:14:40 on domain   4:     .09715 elapsed seconds
Timing for main: time 2016-02-05_13:14:40 on domain   2:     .96143 elapsed seconds
Timing for main: time 2016-02-05_13:14:53 on domain   3:     .09795 elapsed seconds
Timing for main: time 2016-02-05_13:15:06 on domain   3:     .08768 elapsed seconds
Timing for main: time 2016-02-05_13:15:20 on domain   3:     .08406 elapsed seconds
Timing for main: time 2016-02-05_13:15:00 on domain   4:     .10180 elapsed seconds
Timing for main: time 2016-02-05_13:15:20 on domain   4:     .09727 elapsed seconds
Timing for main: time 2016-02-05_13:15:20 on domain   2:     .91797 elapsed seconds
Timing for main: time 2016-02-05_13:15:33 on domain   3:     .09776 elapsed seconds
Timing for main: time 2016-02-05_13:15:46 on domain   3:     .08879 elapsed seconds
Timing for main: time 2016-02-05_13:16:00 on domain   3:     .08756 elapsed seconds
Timing for main: time 2016-02-05_13:15:40 on domain   4:     .09855 elapsed seconds
Timing for main: time 2016-02-05_13:16:00 on domain   4:     .09664 elapsed seconds
Timing for main: time 2016-02-05_13:16:00 on domain   2:     .89441 elapsed seconds
Timing for main: time 2016-02-05_13:16:00 on domain   1:    3.00687 elapsed seconds
Timing for main: time 2016-02-05_13:16:13 on domain   3:     .09808 elapsed seconds
Timing for main: time 2016-02-05_13:16:26 on domain   3:     .08733 elapsed seconds
Timing for main: time 2016-02-05_13:16:40 on domain   3:     .09140 elapsed seconds
Timing for main: time 2016-02-05_13:16:20 on domain   4:     .09910 elapsed seconds
Timing for main: time 2016-02-05_13:16:40 on domain   4:     .09761 elapsed seconds
Timing for main: time 2016-02-05_13:16:40 on domain   2:     .90320 elapsed seconds
Timing for main: time 2016-02-05_13:16:53 on domain   3:     .09782 elapsed seconds
Timing for main: time 2016-02-05_13:17:06 on domain   3:     .08779 elapsed seconds
Timing for main: time 2016-02-05_13:17:20 on domain   3:     .08981 elapsed seconds
Timing for main: time 2016-02-05_13:17:00 on domain   4:     .09930 elapsed seconds
Timing for main: time 2016-02-05_13:17:20 on domain   4:     .09607 elapsed seconds
Timing for main: time 2016-02-05_13:17:20 on domain   2:     .89366 elapsed seconds
[...]
Timing for main: time 2016-02-05_17:36:00 on domain   2:     .90941 elapsed seconds
Timing for main: time 2016-02-05_17:36:00 on domain   1:    2.95121 elapsed seconds
Timing for main: time 2016-02-05_17:36:13 on domain   3:     .09757 elapsed seconds
Timing for main: time 2016-02-05_17:36:26 on domain   3:     .08835 elapsed seconds
Timing for main: time 2016-02-05_17:36:40 on domain   3:     .08870 elapsed seconds
Timing for main: time 2016-02-05_17:36:20 on domain   4:     .09907 elapsed seconds
Timing for main: time 2016-02-05_17:36:40 on domain   4:     .09632 elapsed seconds
Timing for main: time 2016-02-05_17:36:40 on domain   2:     .90604 elapsed seconds
Timing for main: time 2016-02-05_17:36:53 on domain   3:     .09847 elapsed seconds
Timing for main: time 2016-02-05_17:37:06 on domain   3:     .08798 elapsed seconds
Timing for main: time 2016-02-05_17:37:20 on domain   3:     .09152 elapsed seconds
Timing for main: time 2016-02-05_17:37:00 on domain   4:     .10020 elapsed seconds
Timing for main: time 2016-02-05_17:37:20 on domain   4:     .09720 elapsed seconds
Timing for main: time 2016-02-05_17:37:20 on domain   2:     .90206 elapsed seconds
Timing for main: time 2016-02-05_17:37:33 on domain   3:     .09984 elapsed seconds
Timing for main: time 2016-02-05_17:37:46 on domain   3:     .08774 elapsed seconds
Timing for main: time 2016-02-05_17:38:00 on domain   3:     .08750 elapsed seconds
Timing for main: time 2016-02-05_17:37:40 on domain   4:     .09879 elapsed seconds
Timing for main: time 2016-02-05_17:38:00 on domain   4:     .09743 elapsed seconds
Timing for main: time 2016-02-05_17:38:00 on domain   2:     .89995 elapsed seconds
Timing for main: time 2016-02-05_17:38:00 on domain   1:    2.96608 elapsed seconds
Timing for main: time 2016-02-05_17:38:13 on domain   3:     .09845 elapsed seconds
Timing for main: time 2016-02-05_17:38:26 on domain   3:     .08733 elapsed seconds
Timing for main: time 2016-02-05_17:38:40 on domain   3:     .08903 elapsed seconds
Timing for main: time 2016-02-05_17:38:20 on domain   4:     .09842 elapsed seconds
Timing for main: time 2016-02-05_17:38:40 on domain   4:     .09374 elapsed seconds
Timing for main: time 2016-02-05_17:38:40 on domain   2:     .91597 elapsed seconds
Timing for main: time 2016-02-05_17:38:53 on domain   3:     .09858 elapsed seconds
Timing for main: time 2016-02-05_17:39:06 on domain   3:     .08800 elapsed seconds
Timing for main: time 2016-02-05_17:39:20 on domain   3:     .08820 elapsed seconds
Timing for main: time 2016-02-05_17:39:00 on domain   4:     .09950 elapsed seconds
Timing for main: time 2016-02-05_17:39:20 on domain   4:     .09728 elapsed seconds
Timing for main: time 2016-02-05_17:39:20 on domain   2:     .89546 elapsed seconds
Timing for main: time 2016-02-05_17:39:33 on domain   3:     .09850 elapsed seconds
Timing for main: time 2016-02-05_17:39:46 on domain   3:     .08946 elapsed seconds
Timing for main: time 2016-02-05_17:40:00 on domain   3:     .08845 elapsed seconds
Timing for main: time 2016-02-05_17:39:40 on domain   4:     .09925 elapsed seconds
Timing for main: time 2016-02-05_17:40:00 on domain   4:     .10160 elapsed seconds
Timing for main: time 2016-02-05_17:40:00 on domain   2:     .90408 elapsed seconds
Timing for main: time 2016-02-05_17:40:00 on domain   1:    2.94704 elapsed seconds
Timing for main: time 2016-02-05_17:40:13 on domain   3:     .09808 elapsed seconds
Timing for main: time 2016-02-05_17:40:26 on domain   3:     .09218 elapsed seconds
Timing for main: time 2016-02-05_17:40:40 on domain   3:     .11337 elapsed seconds
Timing for main: time 2016-02-05_17:40:20 on domain   4:     .09878 elapsed seconds
Timing for main: time 2016-02-05_17:40:40 on domain   4:     .09744 elapsed seconds
Timing for main: time 2016-02-05_17:40:40 on domain   2:     .97957 elapsed seconds
Timing for main: time 2016-02-05_17:40:53 on domain   3:     .09848 elapsed seconds
Timing for main: time 2016-02-05_17:41:06 on domain   3:     .08727 elapsed seconds
Timing for main: time 2016-02-05_17:41:20 on domain   3:     .08820 elapsed seconds
Timing for main: time 2016-02-05_17:41:00 on domain   4:     .09887 elapsed seconds
Timing for main: time 2016-02-05_17:41:20 on domain   4:     .10050 elapsed seconds
Timing for main: time 2016-02-05_17:41:20 on domain   2:     .90092 elapsed seconds
Timing for main: time 2016-02-05_17:41:33 on domain   3:     .09862 elapsed seconds
Timing for main: time 2016-02-05_17:41:46 on domain   3:     .08718 elapsed seconds
Timing for main: time 2016-02-05_17:42:00 on domain   3:     .08825 elapsed seconds
Timing for main: time 2016-02-05_17:41:40 on domain   4:     .09903 elapsed seconds
Timing for main: time 2016-02-05_17:42:00 on domain   4:     .10210 elapsed seconds
Timing for main: time 2016-02-05_17:42:00 on domain   2:     .90143 elapsed seconds
Timing for main: time 2016-02-05_17:42:00 on domain   1:    3.04310 elapsed seconds
Timing for main: time 2016-02-05_17:42:13 on domain   3:     .09852 elapsed seconds
Timing for main: time 2016-02-05_17:42:26 on domain   3:     .09045 elapsed seconds
Timing for main: time 2016-02-05_17:42:40 on domain   3:     .08819 elapsed seconds
Timing for main: time 2016-02-05_17:42:20 on domain   4:     .09847 elapsed seconds
Timing for main: time 2016-02-05_17:42:40 on domain   4:     .09858 elapsed seconds
Timing for main: time 2016-02-05_17:42:40 on domain   2:     .90778 elapsed seconds
Timing for main: time 2016-02-05_17:42:53 on domain   3:     .09811 elapsed seconds
Timing for main: time 2016-02-05_17:43:06 on domain   3:     .08774 elapsed seconds
Timing for main: time 2016-02-05_17:43:20 on domain   3:     .08882 elapsed seconds
Timing for main: time 2016-02-05_17:43:00 on domain   4:     .09936 elapsed seconds
Timing for main: time 2016-02-05_17:43:20 on domain   4:     .09733 elapsed seconds
Timing for main: time 2016-02-05_17:43:20 on domain   2:     .89874 elapsed seconds
Timing for main: time 2016-02-05_17:43:33 on domain   3:     .09870 elapsed seconds
Timing for main: time 2016-02-05_17:43:46 on domain   3:     .08746 elapsed seconds
Timing for main: time 2016-02-05_17:44:00 on domain   3:     .08805 elapsed seconds
Timing for main: time 2016-02-05_17:43:40 on domain   4:     .09894 elapsed seconds
Timing for main: time 2016-02-05_17:44:00 on domain   4:     .10225 elapsed seconds
Timing for main: time 2016-02-05_17:44:00 on domain   2:     .90317 elapsed seconds
Timing for main: time 2016-02-05_17:44:00 on domain   1:    2.94261 elapsed seconds
Timing for main: time 2016-02-05_17:44:13 on domain   3:     .09860 elapsed seconds
Timing for main: time 2016-02-05_17:44:26 on domain   3:     .08732 elapsed seconds
Timing for main: time 2016-02-05_17:44:40 on domain   3:     .08882 elapsed seconds
Timing for main: time 2016-02-05_17:44:20 on domain   4:     .09903 elapsed seconds
Timing for main: time 2016-02-05_17:44:40 on domain   4:     .09765 elapsed seconds
Timing for main: time 2016-02-05_17:44:40 on domain   2:     .93593 elapsed seconds
Timing for main: time 2016-02-05_17:44:53 on domain   3:     .09775 elapsed seconds
Timing for main: time 2016-02-05_17:45:06 on domain   3:     .08685 elapsed seconds
Timing for main: time 2016-02-05_17:45:20 on domain   3:     .08856 elapsed seconds
Timing for main: time 2016-02-05_17:45:00 on domain   4:     .10308 elapsed seconds
Timing for main: time 2016-02-05_17:45:20 on domain   4:     .09744 elapsed seconds
Timing for main: time 2016-02-05_17:45:20 on domain   2:     .89964 elapsed seconds
Timing for main: time 2016-02-05_17:45:33 on domain   3:     .09838 elapsed seconds
Timing for main: time 2016-02-05_17:45:46 on domain   3:     .08924 elapsed seconds
Timing for main: time 2016-02-05_17:46:00 on domain   3:     .08721 elapsed seconds
Timing for main: time 2016-02-05_17:45:40 on domain   4:     .09849 elapsed seconds
Timing for main: time 2016-02-05_17:46:00 on domain   4:     .09735 elapsed seconds
Timing for main: time 2016-02-05_17:46:00 on domain   2:     .89648 elapsed seconds
Timing for main: time 2016-02-05_17:46:00 on domain   1:    2.96522 elapsed seconds
Timing for main: time 2016-02-05_17:46:13 on domain   3:     .09952 elapsed seconds
Timing for main: time 2016-02-05_17:46:26 on domain   3:     .08744 elapsed seconds
Timing for main: time 2016-02-05_17:46:40 on domain   3:     .08910 elapsed seconds
Timing for main: time 2016-02-05_17:46:20 on domain   4:     .09843 elapsed seconds
Timing for main: time 2016-02-05_17:46:40 on domain   4:     .09773 elapsed seconds
Timing for main: time 2016-02-05_17:46:40 on domain   2:     .90996 elapsed seconds
Timing for main: time 2016-02-05_17:46:53 on domain   3:     .09854 elapsed seconds
Timing for main: time 2016-02-05_17:47:06 on domain   3:     .08825 elapsed seconds
Timing for main: time 2016-02-05_17:47:20 on domain   3:     .08773 elapsed seconds
Timing for main: time 2016-02-05_17:47:00 on domain   4:     .09876 elapsed seconds
Timing for main: time 2016-02-05_17:47:20 on domain   4:     .09731 elapsed seconds
Timing for main: time 2016-02-05_17:47:20 on domain   2:     .89777 elapsed seconds
Timing for main: time 2016-02-05_17:47:33 on domain   3:     .10143 elapsed seconds
Timing for main: time 2016-02-05_17:47:46 on domain   3:     .08833 elapsed seconds
Timing for main: time 2016-02-05_17:48:00 on domain   3:     .09152 elapsed seconds
Timing for main: time 2016-02-05_17:47:40 on domain   4:     .09802 elapsed seconds
Timing for main: time 2016-02-05_17:48:00 on domain   4:     .09647 elapsed seconds
Timing for main: time 2016-02-05_17:48:00 on domain   2:     .90563 elapsed seconds
Timing for main: time 2016-02-05_17:48:00 on domain   1:    2.95060 elapsed seconds
Timing for main: time 2016-02-05_17:48:13 on domain   3:     .09822 elapsed seconds
Timing for main: time 2016-02-05_17:48:26 on domain   3:     .08830 elapsed seconds
Timing for main: time 2016-02-05_17:48:40 on domain   3:     .08818 elapsed seconds
Timing for main: time 2016-02-05_17:48:20 on domain   4:     .10157 elapsed seconds
Timing for main: time 2016-02-05_17:48:40 on domain   4:     .09761 elapsed seconds
Timing for main: time 2016-02-05_17:48:40 on domain   2:     .90665 elapsed seconds
Timing for main: time 2016-02-05_17:48:53 on domain   3:     .10079 elapsed seconds
Timing for main: time 2016-02-05_17:49:06 on domain   3:     .11801 elapsed seconds
Timing for main: time 2016-02-05_17:49:20 on domain   3:     .11194 elapsed seconds
Timing for main: time 2016-02-05_17:49:00 on domain   4:     .09893 elapsed seconds
Timing for main: time 2016-02-05_17:49:20 on domain   4:     .09912 elapsed seconds
Timing for main: time 2016-02-05_17:49:20 on domain   2:     .98874 elapsed seconds
Timing for main: time 2016-02-05_17:49:33 on domain   3:     .09878 elapsed seconds
Timing for main: time 2016-02-05_17:49:46 on domain   3:     .08856 elapsed seconds
Timing for main: time 2016-02-05_17:50:00 on domain   3:     .08744 elapsed seconds
Timing for main: time 2016-02-05_17:49:40 on domain   4:     .09866 elapsed seconds
Timing for main: time 2016-02-05_17:50:00 on domain   4:     .10167 elapsed seconds
Timing for main: time 2016-02-05_17:50:00 on domain   2:     .90049 elapsed seconds
Timing for main: time 2016-02-05_17:50:00 on domain   1:    3.03400 elapsed seconds
Timing for main: time 2016-02-05_17:50:13 on domain   3:     .09817 elapsed seconds
Timing for main: time 2016-02-05_17:50:26 on domain   3:     .08841 elapsed seconds
Timing for main: time 2016-02-05_17:50:40 on domain   3:     .09019 elapsed seconds
Timing for main: time 2016-02-05_17:50:20 on domain   4:     .09918 elapsed seconds
Timing for main: time 2016-02-05_17:50:40 on domain   4:     .10071 elapsed seconds
Timing for main: time 2016-02-05_17:50:40 on domain   2:     .90937 elapsed seconds
Timing for main: time 2016-02-05_17:50:53 on domain   3:     .09865 elapsed seconds
Timing for main: time 2016-02-05_17:51:06 on domain   3:     .08794 elapsed seconds
Timing for main: time 2016-02-05_17:51:20 on domain   3:     .08803 elapsed seconds
Timing for main: time 2016-02-05_17:51:00 on domain   4:     .09886 elapsed seconds
Timing for main: time 2016-02-05_17:51:20 on domain   4:     .09631 elapsed seconds
Timing for main: time 2016-02-05_17:51:20 on domain   2:     .89648 elapsed seconds
Timing for main: time 2016-02-05_17:51:33 on domain   3:     .09615 elapsed seconds
Timing for main: time 2016-02-05_17:51:46 on domain   3:     .08901 elapsed seconds
Timing for main: time 2016-02-05_17:52:00 on domain   3:     .08813 elapsed seconds
Timing for main: time 2016-02-05_17:51:40 on domain   4:     .09812 elapsed seconds
Timing for main: time 2016-02-05_17:52:00 on domain   4:     .09875 elapsed seconds
Timing for main: time 2016-02-05_17:52:00 on domain   2:     .90305 elapsed seconds
Timing for main: time 2016-02-05_17:52:00 on domain   1:    2.94021 elapsed seconds
Timing for main: time 2016-02-05_17:52:13 on domain   3:     .09874 elapsed seconds
Timing for main: time 2016-02-05_17:52:26 on domain   3:     .08870 elapsed seconds
Timing for main: time 2016-02-05_17:52:40 on domain   3:     .09117 elapsed seconds
Timing for main: time 2016-02-05_17:52:20 on domain   4:     .09864 elapsed seconds
Timing for main: time 2016-02-05_17:52:40 on domain   4:     .09637 elapsed seconds
Timing for main: time 2016-02-05_17:52:40 on domain   2:     .90656 elapsed seconds
Timing for main: time 2016-02-05_17:52:53 on domain   3:     .09865 elapsed seconds
Timing for main: time 2016-02-05_17:53:06 on domain   3:     .08951 elapsed seconds
Timing for main: time 2016-02-05_17:53:20 on domain   3:     .08828 elapsed seconds
Timing for main: time 2016-02-05_17:53:00 on domain   4:     .09862 elapsed seconds
Timing for main: time 2016-02-05_17:53:20 on domain   4:     .09637 elapsed seconds
Timing for main: time 2016-02-05_17:53:20 on domain   2:     .89960 elapsed seconds
Timing for main: time 2016-02-05_17:53:33 on domain   3:     .09859 elapsed seconds
Timing for main: time 2016-02-05_17:53:46 on domain   3:     .08820 elapsed seconds
Timing for main: time 2016-02-05_17:54:00 on domain   3:     .08827 elapsed seconds
Timing for main: time 2016-02-05_17:53:40 on domain   4:     .09829 elapsed seconds
Timing for main: time 2016-02-05_17:54:00 on domain   4:     .09781 elapsed seconds
Timing for main: time 2016-02-05_17:54:00 on domain   2:     .90879 elapsed seconds
Timing for main: time 2016-02-05_17:54:00 on domain   1:    2.97507 elapsed seconds
Timing for main: time 2016-02-05_17:54:13 on domain   3:     .09889 elapsed seconds
Timing for main: time 2016-02-05_17:54:26 on domain   3:     .08678 elapsed seconds
Timing for main: time 2016-02-05_17:54:40 on domain   3:     .08847 elapsed seconds
Timing for main: time 2016-02-05_17:54:20 on domain   4:     .09867 elapsed seconds
Timing for main: time 2016-02-05_17:54:40 on domain   4:     .09422 elapsed seconds
Timing for main: time 2016-02-05_17:54:40 on domain   2:     .91681 elapsed seconds
Timing for main: time 2016-02-05_17:54:53 on domain   3:     .09854 elapsed seconds
Timing for main: time 2016-02-05_17:55:06 on domain   3:     .09316 elapsed seconds
Timing for main: time 2016-02-05_17:55:20 on domain   3:     .08852 elapsed seconds
Timing for main: time 2016-02-05_17:55:00 on domain   4:     .10231 elapsed seconds
Timing for main: time 2016-02-05_17:55:20 on domain   4:     .09760 elapsed seconds
Timing for main: time 2016-02-05_17:55:20 on domain   2:     .90703 elapsed seconds
Timing for main: time 2016-02-05_17:55:33 on domain   3:     .09838 elapsed seconds
Timing for main: time 2016-02-05_17:55:46 on domain   3:     .08741 elapsed seconds
Timing for main: time 2016-02-05_17:56:00 on domain   3:     .08851 elapsed seconds
Timing for main: time 2016-02-05_17:55:40 on domain   4:     .09900 elapsed seconds
Timing for main: time 2016-02-05_17:56:00 on domain   4:     .10240 elapsed seconds
Timing for main: time 2016-02-05_17:56:00 on domain   2:     .90175 elapsed seconds
Timing for main: time 2016-02-05_17:56:00 on domain   1:    2.95507 elapsed seconds
Timing for main: time 2016-02-05_17:56:13 on domain   3:     .11644 elapsed seconds
Timing for main: time 2016-02-05_17:56:26 on domain   3:     .10315 elapsed seconds
Timing for main: time 2016-02-05_17:56:40 on domain   3:     .08944 elapsed seconds
Timing for main: time 2016-02-05_17:56:20 on domain   4:     .10003 elapsed seconds
Timing for main: time 2016-02-05_17:56:40 on domain   4:     .09798 elapsed seconds
Timing for main: time 2016-02-05_17:56:40 on domain   2:     .93996 elapsed seconds
Timing for main: time 2016-02-05_17:56:53 on domain   3:     .09855 elapsed seconds
Timing for main: time 2016-02-05_17:57:06 on domain   3:     .08701 elapsed seconds
Timing for main: time 2016-02-05_17:57:20 on domain   3:     .08833 elapsed seconds
Timing for main: time 2016-02-05_17:57:00 on domain   4:     .09915 elapsed seconds
Timing for main: time 2016-02-05_17:57:20 on domain   4:     .09766 elapsed seconds
Timing for main: time 2016-02-05_17:57:20 on domain   2:     .90161 elapsed seconds
Timing for main: time 2016-02-05_17:57:33 on domain   3:     .09908 elapsed seconds
Timing for main: time 2016-02-05_17:57:46 on domain   3:     .09121 elapsed seconds
Timing for main: time 2016-02-05_17:58:00 on domain   3:     .08869 elapsed seconds
Timing for main: time 2016-02-05_17:57:40 on domain   4:     .09889 elapsed seconds
Timing for main: time 2016-02-05_17:58:00 on domain   4:     .09764 elapsed seconds
Timing for main: time 2016-02-05_17:58:00 on domain   2:     .90179 elapsed seconds
Timing for main: time 2016-02-05_17:58:00 on domain   1:    2.97652 elapsed seconds
  photolysis_driver: called for domain  1
Timing for main: time 2016-02-05_17:58:13 on domain   3:     .09866 elapsed seconds
Timing for main: time 2016-02-05_17:58:26 on domain   3:     .08799 elapsed seconds
Timing for main: time 2016-02-05_17:58:40 on domain   3:     .08944 elapsed seconds
Timing for main: time 2016-02-05_17:58:20 on domain   4:     .09764 elapsed seconds
Timing for main: time 2016-02-05_17:58:40 on domain   4:     .09324 elapsed seconds
Timing for main: time 2016-02-05_17:58:40 on domain   2:     .91818 elapsed seconds
Timing for main: time 2016-02-05_17:58:53 on domain   3:     .09846 elapsed seconds
Timing for main: time 2016-02-05_17:59:06 on domain   3:     .08796 elapsed seconds
Timing for main: time 2016-02-05_17:59:20 on domain   3:     .08833 elapsed seconds
Timing for main: time 2016-02-05_17:59:00 on domain   4:     .09869 elapsed seconds
Timing for main: time 2016-02-05_17:59:20 on domain   4:     .09763 elapsed seconds
Timing for main: time 2016-02-05_17:59:20 on domain   2:     .89552 elapsed seconds
  photolysis_driver: called for domain  2
Timing for main: time 2016-02-05_17:59:33 on domain   3:     .09898 elapsed seconds
Timing for main: time 2016-02-05_17:59:46 on domain   3:     .08760 elapsed seconds
  photolysis_driver: called for domain  3
Timing for main: time 2016-02-05_18:00:00 on domain   3:     .43889 elapsed seconds
Timing for Writing wrfout_d03_2016-02-05_18:00:00 for domain        3:    2.56819 elapsed seconds
Timing for main: time 2016-02-05_17:59:40 on domain   4:     .11009 elapsed seconds
  photolysis_driver: called for domain  4
Timing for main: time 2016-02-05_18:00:00 on domain   4:     .50737 elapsed seconds
Timing for Writing wrfout_d04_2016-02-05_18:00:00 for domain        4:    2.68619 elapsed seconds
Timing for main: time 2016-02-05_18:00:00 on domain   2:    7.74318 elapsed seconds
Timing for Writing wrfout_d02_2016-02-05_18:00:00 for domain        2:    2.66522 elapsed seconds
Timing for main: time 2016-02-05_18:00:00 on domain   1:   12.71257 elapsed seconds
Timing for Writing wrfout_d01_2016-02-05_18:00:00 for domain        1:    2.36083 elapsed seconds
 d01 2016-02-05_18:00:00 wrf: SUCCESS COMPLETE WRF
