taskid: 0 hostname: p10a51.pbm.ihost.com
  Ntasks in X  14 , ntasks in Y  20
 Setting blank km_opt entries to domain #1 values.
  --> The km_opt entry in the namelist.input is now max_domains.
 Setting blank diff_opt entries to domain #1 values.
  --> The diff_opt entry in the namelist.input is now max_domains.
 --- WARNING: traj_opt is zero, but num_traj is not zero; setting num_traj to zero.
 --- NOTE: hypsometric_opt is 2, setting adjust_heights = F
 --- NOTE: sst_update is 0, setting io_form_auxinput4 = 0 and auxinput4_interval = 0 for all domains
 --- NOTE: sst_update is 0, setting io_form_auxinput4 = 0 and auxinput4_interval = 0 for all domains
 --- NOTE: sst_update is 0, setting io_form_auxinput4 = 0 and auxinput4_interval = 0 for all domains
 --- NOTE: sst_update is 0, setting io_form_auxinput4 = 0 and auxinput4_interval = 0 for all domains
 --- NOTE: grid_fdda is 0 for domain      1, setting gfdda interval and ending time to 0 for that domain.
 --- NOTE: both grid_sfdda and pxlsm_soil_nudge are 0 for domain      1, setting sgfdda interval and ending time to 0 for that domain.
 --- NOTE: obs_nudge_opt is 0 for domain      1, setting obs nudging interval and ending time to 0 for that domain.
 --- NOTE: grid_fdda is 0 for domain      2, setting gfdda interval and ending time to 0 for that domain.
 --- NOTE: both grid_sfdda and pxlsm_soil_nudge are 0 for domain      2, setting sgfdda interval and ending time to 0 for that domain.
 --- NOTE: obs_nudge_opt is 0 for domain      2, setting obs nudging interval and ending time to 0 for that domain.
 --- NOTE: grid_fdda is 0 for domain      3, setting gfdda interval and ending time to 0 for that domain.
 --- NOTE: both grid_sfdda and pxlsm_soil_nudge are 0 for domain      3, setting sgfdda interval and ending time to 0 for that domain.
 --- NOTE: obs_nudge_opt is 0 for domain      3, setting obs nudging interval and ending time to 0 for that domain.
 --- NOTE: grid_fdda is 0 for domain      4, setting gfdda interval and ending time to 0 for that domain.
 --- NOTE: both grid_sfdda and pxlsm_soil_nudge are 0 for domain      4, setting sgfdda interval and ending time to 0 for that domain.
 --- NOTE: obs_nudge_opt is 0 for domain      4, setting obs nudging interval and ending time to 0 for that domain.
 bl_pbl_physics /= 4, implies mfshconv must be 0, resetting
 --- NOTE: num_soil_layers has been set to      4
 WRF V3.6 MODEL
  *************************************
  Parent domain
  ids,ide,jds,jde  1 271 1 181
  ims,ime,jms,jme  -4 27 -4 16
  ips,ipe,jps,jpe  1 20 1 9
  *************************************
 DYNAMICS OPTION: Eulerian Mass Coordinate
    alloc_space_field: domain  1 ,  69547012  bytes allocated
   med_initialdata_input: calling input_input
Timing for processing wrfinput file (stream 0) for domain        1:    4.98880 elapsed seconds
 INPUT LandUse = "USGS"
  LANDUSE TYPE = "USGS" FOUND 33  CATEGORIES 2  SEASONS WATER CATEGORY =  16  SNOW CATEGORY =  24
 INITIALIZE THREE Noah LSM RELATED TABLES
  LANDUSE TYPE = USGS FOUND 27  CATEGORIES
  INPUT SOIL TEXTURE CLASSIFICATION = STAS
  SOIL TEXTURE CLASSIFICATION = STAS FOUND 19  CATEGORIES
 *********************************************************************
 *             PROGRAM:WRF/CHEM V3.6 MODEL
 *                                                                   *
 *    PLEASE REPORT ANY BUGS TO WRF/CHEM HELP at                     *
 *                                                                   *
 *              wrfchemhelp.gsd@noaa.gov                             *
 *                                                                   *
 *********************************************************************
 WARNING: dust option 1 currently works only with the GOCART aerosol option.
 WARNING: sea salt option 1 currently works only with the GOCART aerosol option.
  *************************************
  Nesting domain
  ids,ide,jds,jde  1 361 1 253
  ims,ime,jms,jme  -4 36 -4 24
  ips,ipe,jps,jpe  1 26 1 13
  INTERMEDIATE domain
  ids,ide,jds,jde  74 199 47 136
  ims,ime,jms,jme  69 94 42 62
  ips,ipe,jps,jpe  72 84 45 52
  *************************************
 d01 2016-02-05_12:00:00  alloc_space_field: domain  2 ,  119469088  bytes allocated
 d01 2016-02-05_12:00:00  alloc_space_field: domain  2 ,  6877416  bytes allocated
 d01 2016-02-05_12:00:00 *** Initializing nest domain # 2 from an input file. ***
 d01 2016-02-05_12:00:00 med_initialdata_input: calling input_input
Timing for processing wrfinput file (stream 0) for domain        2:    7.77400 elapsed seconds
 INPUT LandUse = "USGS"
  LANDUSE TYPE = "USGS" FOUND 33  CATEGORIES 2  SEASONS WATER CATEGORY =  16  SNOW CATEGORY =  24
 INITIALIZE THREE Noah LSM RELATED TABLES
  LANDUSE TYPE = USGS FOUND 27  CATEGORIES
  INPUT SOIL TEXTURE CLASSIFICATION = STAS
  SOIL TEXTURE CLASSIFICATION = STAS FOUND 19  CATEGORIES
 *********************************************************************
 *             PROGRAM:WRF/CHEM V3.6 MODEL
 *                                                                   *
 *    PLEASE REPORT ANY BUGS TO WRF/CHEM HELP at                     *
 *                                                                   *
 *              wrfchemhelp.gsd@noaa.gov                             *
 *                                                                   *
 *********************************************************************
 WARNING: dust option 1 currently works only with the GOCART aerosol option.
 WARNING: sea salt option 1 currently works only with the GOCART aerosol option.
 INPUT LandUse = "USGS"
  LANDUSE TYPE = "USGS" FOUND 33  CATEGORIES 2  SEASONS WATER CATEGORY =  16  SNOW CATEGORY =  24
 INITIALIZE THREE Noah LSM RELATED TABLES
  LANDUSE TYPE = USGS FOUND 27  CATEGORIES
  INPUT SOIL TEXTURE CLASSIFICATION = STAS
  SOIL TEXTURE CLASSIFICATION = STAS FOUND 19  CATEGORIES
 *********************************************************************
 *             PROGRAM:WRF/CHEM V3.6 MODEL
 *                                                                   *
 *    PLEASE REPORT ANY BUGS TO WRF/CHEM HELP at                     *
 *                                                                   *
 *              wrfchemhelp.gsd@noaa.gov                             *
 *                                                                   *
 *********************************************************************
 WARNING: dust option 1 currently works only with the GOCART aerosol option.
 WARNING: sea salt option 1 currently works only with the GOCART aerosol option.
 INPUT LandUse = "USGS"
  LANDUSE TYPE = "USGS" FOUND 33  CATEGORIES 2  SEASONS WATER CATEGORY =  16  SNOW CATEGORY =  24
 INITIALIZE THREE Noah LSM RELATED TABLES
  LANDUSE TYPE = USGS FOUND 27  CATEGORIES
  INPUT SOIL TEXTURE CLASSIFICATION = STAS
  SOIL TEXTURE CLASSIFICATION = STAS FOUND 19  CATEGORIES
 *********************************************************************
 *             PROGRAM:WRF/CHEM V3.6 MODEL
 *                                                                   *
 *    PLEASE REPORT ANY BUGS TO WRF/CHEM HELP at                     *
 *                                                                   *
 *              wrfchemhelp.gsd@noaa.gov                             *
 *                                                                   *
 *********************************************************************
 WARNING: dust option 1 currently works only with the GOCART aerosol option.
 WARNING: sea salt option 1 currently works only with the GOCART aerosol option.
Timing for Writing wrfout_d01_2016-02-05_12:00:00 for domain        1:    2.58449 elapsed seconds
  mediation_integrate: med_read_wrf_chem_emissions: Open file wrfchemi_12z_d01
  HOURLY EMISSIONS UPDATE TIME         .0        .0
 mediation_integrate: med_read_wrf_chem_emissions: Read emissions for time 2016-02-05_12:00:00
 **WARNING** Time in input file not being checked **WARNING**
Timing for processing lateral boundary for domain        1:    4.10601 elapsed seconds
  Tile Strategy is not specified. Assuming 1D-Y
 WRF TILE   1 IS      1 IE     20 JS      1 JE      9
 WRF NUMBER OF TILES =   1
  photolysis_driver: called for domain  1
  *************************************
  Nesting domain
  ids,ide,jds,jde  1 307 1 241
  ims,ime,jms,jme  -4 33 -4 24
  ips,ipe,jps,jpe  1 22 1 12
  INTERMEDIATE domain
  ids,ide,jds,jde  124 231 35 120
  ims,ime,jms,jme  119 142 30 50
  ips,ipe,jps,jpe  122 132 33 40
  *************************************
 d02 2016-02-05_12:00:00  alloc_space_field: domain  3 ,  111002184  bytes allocated
 d02 2016-02-05_12:00:00  alloc_space_field: domain  3 ,  6348384  bytes allocated
 d02 2016-02-05_12:00:00 *** Initializing nest domain # 3 from an input file. ***
 d02 2016-02-05_12:00:00 med_initialdata_input: calling input_input
Timing for processing wrfinput file (stream 0) for domain        3:    6.31623 elapsed seconds
 INPUT LandUse = "USGS"
  LANDUSE TYPE = "USGS" FOUND 33  CATEGORIES 2  SEASONS WATER CATEGORY =  16  SNOW CATEGORY =  24
 INITIALIZE THREE Noah LSM RELATED TABLES
  LANDUSE TYPE = USGS FOUND 27  CATEGORIES
  INPUT SOIL TEXTURE CLASSIFICATION = STAS
  SOIL TEXTURE CLASSIFICATION = STAS FOUND 19  CATEGORIES
 *********************************************************************
 *             PROGRAM:WRF/CHEM V3.6 MODEL
 *                                                                   *
 *    PLEASE REPORT ANY BUGS TO WRF/CHEM HELP at                     *
 *                                                                   *
 *              wrfchemhelp.gsd@noaa.gov                             *
 *                                                                   *
 *********************************************************************
 WARNING: dust option 1 currently works only with the GOCART aerosol option.
 WARNING: sea salt option 1 currently works only with the GOCART aerosol option.
 INPUT LandUse = "USGS"
  LANDUSE TYPE = "USGS" FOUND 33  CATEGORIES 2  SEASONS WATER CATEGORY =  16  SNOW CATEGORY =  24
 INITIALIZE THREE Noah LSM RELATED TABLES
  LANDUSE TYPE = USGS FOUND 27  CATEGORIES
  INPUT SOIL TEXTURE CLASSIFICATION = STAS
  SOIL TEXTURE CLASSIFICATION = STAS FOUND 19  CATEGORIES
 *********************************************************************
 *             PROGRAM:WRF/CHEM V3.6 MODEL
 *                                                                   *
 *    PLEASE REPORT ANY BUGS TO WRF/CHEM HELP at                     *
 *                                                                   *
 *              wrfchemhelp.gsd@noaa.gov                             *
 *                                                                   *
 *********************************************************************
 WARNING: dust option 1 currently works only with the GOCART aerosol option.
 WARNING: sea salt option 1 currently works only with the GOCART aerosol option.
 INPUT LandUse = "USGS"
  LANDUSE TYPE = "USGS" FOUND 33  CATEGORIES 2  SEASONS WATER CATEGORY =  16  SNOW CATEGORY =  24
 INITIALIZE THREE Noah LSM RELATED TABLES
  LANDUSE TYPE = USGS FOUND 27  CATEGORIES
  INPUT SOIL TEXTURE CLASSIFICATION = STAS
  SOIL TEXTURE CLASSIFICATION = STAS FOUND 19  CATEGORIES
 *********************************************************************
 *             PROGRAM:WRF/CHEM V3.6 MODEL
 *                                                                   *
 *    PLEASE REPORT ANY BUGS TO WRF/CHEM HELP at                     *
 *                                                                   *
 *              wrfchemhelp.gsd@noaa.gov                             *
 *                                                                   *
 *********************************************************************
 WARNING: dust option 1 currently works only with the GOCART aerosol option.
 WARNING: sea salt option 1 currently works only with the GOCART aerosol option.
  *************************************
  Nesting domain
  ids,ide,jds,jde  1 217 1 388
  ims,ime,jms,jme  -4 27 -4 30
  ips,ipe,jps,jpe  1 16 1 20
  INTERMEDIATE domain
  ids,ide,jds,jde  225 302 83 217
  ims,ime,jms,jme  220 241 78 101
  ips,ipe,jps,jpe  223 231 81 91
  *************************************
 d02 2016-02-05_12:00:00  alloc_space_field: domain  4 ,  112707920  bytes allocated
 d02 2016-02-05_12:00:00 *** Initializing nest domain # 4 from an input file. ***
 d02 2016-02-05_12:00:00 med_initialdata_input: calling input_input
Timing for processing wrfinput file (stream 0) for domain        4:    7.81611 elapsed seconds
 INPUT LandUse = "USGS"
  LANDUSE TYPE = "USGS" FOUND 33  CATEGORIES 2  SEASONS WATER CATEGORY =  16  SNOW CATEGORY =  24
 INITIALIZE THREE Noah LSM RELATED TABLES
  LANDUSE TYPE = USGS FOUND 27  CATEGORIES
  INPUT SOIL TEXTURE CLASSIFICATION = STAS
  SOIL TEXTURE CLASSIFICATION = STAS FOUND 19  CATEGORIES
 *********************************************************************
 *             PROGRAM:WRF/CHEM V3.6 MODEL
 *                                                                   *
 *    PLEASE REPORT ANY BUGS TO WRF/CHEM HELP at                     *
 *                                                                   *
 *              wrfchemhelp.gsd@noaa.gov                             *
 *                                                                   *
 *********************************************************************
 WARNING: dust option 1 currently works only with the GOCART aerosol option.
 WARNING: sea salt option 1 currently works only with the GOCART aerosol option.
 INPUT LandUse = "USGS"
  LANDUSE TYPE = "USGS" FOUND 33  CATEGORIES 2  SEASONS WATER CATEGORY =  16  SNOW CATEGORY =  24
 INITIALIZE THREE Noah LSM RELATED TABLES
  LANDUSE TYPE = USGS FOUND 27  CATEGORIES
  INPUT SOIL TEXTURE CLASSIFICATION = STAS
  SOIL TEXTURE CLASSIFICATION = STAS FOUND 19  CATEGORIES
 *********************************************************************
 *             PROGRAM:WRF/CHEM V3.6 MODEL
 *                                                                   *
 *    PLEASE REPORT ANY BUGS TO WRF/CHEM HELP at                     *
 *                                                                   *
 *              wrfchemhelp.gsd@noaa.gov                             *
 *                                                                   *
 *********************************************************************
 WARNING: dust option 1 currently works only with the GOCART aerosol option.
 WARNING: sea salt option 1 currently works only with the GOCART aerosol option.
 INPUT LandUse = "USGS"
  LANDUSE TYPE = "USGS" FOUND 33  CATEGORIES 2  SEASONS WATER CATEGORY =  16  SNOW CATEGORY =  24
 INITIALIZE THREE Noah LSM RELATED TABLES
  LANDUSE TYPE = USGS FOUND 27  CATEGORIES
  INPUT SOIL TEXTURE CLASSIFICATION = STAS
  SOIL TEXTURE CLASSIFICATION = STAS FOUND 19  CATEGORIES
 *********************************************************************
 *             PROGRAM:WRF/CHEM V3.6 MODEL
 *                                                                   *
 *    PLEASE REPORT ANY BUGS TO WRF/CHEM HELP at                     *
 *                                                                   *
 *              wrfchemhelp.gsd@noaa.gov                             *
 *                                                                   *
 *********************************************************************
 WARNING: dust option 1 currently works only with the GOCART aerosol option.
 WARNING: sea salt option 1 currently works only with the GOCART aerosol option.
Timing for Writing wrfout_d02_2016-02-05_12:00:00 for domain        2:    3.18658 elapsed seconds
  mediation_integrate: med_read_wrf_chem_emissions: Open file wrfchemi_12z_d02
  HOURLY EMISSIONS UPDATE TIME         .0        .0
 mediation_integrate: med_read_wrf_chem_emissions: Read emissions for time 2016-02-05_12:00:00
 **WARNING** Time in input file not being checked **WARNING**
  Tile Strategy is not specified. Assuming 1D-Y
 WRF TILE   1 IS      1 IE     26 JS      1 JE     13
 WRF NUMBER OF TILES =   1
  photolysis_driver: called for domain  2
Timing for Writing wrfout_d03_2016-02-05_12:00:00 for domain        3:    2.87965 elapsed seconds
  mediation_integrate: med_read_wrf_chem_emissions: Open file wrfchemi_12z_d03
  HOURLY EMISSIONS UPDATE TIME         .0        .0
 mediation_integrate: med_read_wrf_chem_emissions: Read emissions for time 2016-02-05_12:00:00
 **WARNING** Time in input file not being checked **WARNING**
  Tile Strategy is not specified. Assuming 1D-Y
 WRF TILE   1 IS      1 IE     22 JS      1 JE     12
 WRF NUMBER OF TILES =   1
  photolysis_driver: called for domain  3
Timing for main: time 2016-02-05_12:00:13 on domain   3:    5.35425 elapsed seconds
Timing for main: time 2016-02-05_12:00:26 on domain   3:     .17115 elapsed seconds
Timing for main: time 2016-02-05_12:00:40 on domain   3:     .18599 elapsed seconds
Timing for Writing wrfout_d04_2016-02-05_12:00:00 for domain        4:    3.03708 elapsed seconds
  mediation_integrate: med_read_wrf_chem_emissions: Open file wrfchemi_12z_d04
  HOURLY EMISSIONS UPDATE TIME         .0        .0
 mediation_integrate: med_read_wrf_chem_emissions: Read emissions for time 2016-02-05_12:00:00
 **WARNING** Time in input file not being checked **WARNING**
  Tile Strategy is not specified. Assuming 1D-Y
 WRF TILE   1 IS      1 IE     16 JS      1 JE     20
 WRF NUMBER OF TILES =   1
  photolysis_driver: called for domain  4
Timing for main: time 2016-02-05_12:00:20 on domain   4:    6.03105 elapsed seconds
Timing for main: time 2016-02-05_12:00:40 on domain   4:     .24979 elapsed seconds
Timing for main: time 2016-02-05_12:00:40 on domain   2:   36.60980 elapsed seconds
Timing for main: time 2016-02-05_12:00:53 on domain   3:     .20833 elapsed seconds
Timing for main: time 2016-02-05_12:01:06 on domain   3:     .21238 elapsed seconds
Timing for main: time 2016-02-05_12:01:20 on domain   3:     .19926 elapsed seconds
Timing for main: time 2016-02-05_12:01:00 on domain   4:     .24136 elapsed seconds
Timing for main: time 2016-02-05_12:01:20 on domain   4:     .22733 elapsed seconds
Timing for main: time 2016-02-05_12:01:20 on domain   2:    1.87622 elapsed seconds
Timing for main: time 2016-02-05_12:01:33 on domain   3:     .20055 elapsed seconds
Timing for main: time 2016-02-05_12:01:46 on domain   3:     .20053 elapsed seconds
Timing for main: time 2016-02-05_12:02:00 on domain   3:     .21008 elapsed seconds
Timing for main: time 2016-02-05_12:01:40 on domain   4:     .24670 elapsed seconds
Timing for main: time 2016-02-05_12:02:00 on domain   4:     .24237 elapsed seconds
Timing for main: time 2016-02-05_12:02:00 on domain   2:    1.92664 elapsed seconds
Timing for main: time 2016-02-05_12:02:00 on domain   1:   60.54371 elapsed seconds
Timing for main: time 2016-02-05_12:02:13 on domain   3:     .20671 elapsed seconds
Timing for main: time 2016-02-05_12:02:26 on domain   3:     .20606 elapsed seconds
Timing for main: time 2016-02-05_12:02:40 on domain   3:     .19992 elapsed seconds
Timing for main: time 2016-02-05_12:02:20 on domain   4:     .23017 elapsed seconds
Timing for main: time 2016-02-05_12:02:40 on domain   4:     .22138 elapsed seconds
Timing for main: time 2016-02-05_12:02:40 on domain   2:    1.87749 elapsed seconds
Timing for main: time 2016-02-05_12:02:53 on domain   3:     .19312 elapsed seconds
Timing for main: time 2016-02-05_12:03:06 on domain   3:     .18512 elapsed seconds
Timing for main: time 2016-02-05_12:03:20 on domain   3:     .18675 elapsed seconds
Timing for main: time 2016-02-05_12:03:00 on domain   4:     .23132 elapsed seconds
Timing for main: time 2016-02-05_12:03:20 on domain   4:     .22163 elapsed seconds
Timing for main: time 2016-02-05_12:03:20 on domain   2:    1.81427 elapsed seconds
Timing for main: time 2016-02-05_12:03:33 on domain   3:     .19469 elapsed seconds
Timing for main: time 2016-02-05_12:03:46 on domain   3:     .18474 elapsed seconds
Timing for main: time 2016-02-05_12:04:00 on domain   3:     .18563 elapsed seconds
Timing for main: time 2016-02-05_12:03:40 on domain   4:     .23043 elapsed seconds
Timing for main: time 2016-02-05_12:04:00 on domain   4:     .22111 elapsed seconds
Timing for main: time 2016-02-05_12:04:00 on domain   2:    1.79766 elapsed seconds
Timing for main: time 2016-02-05_12:04:00 on domain   1:    5.90075 elapsed seconds
Timing for main: time 2016-02-05_12:04:13 on domain   3:     .19416 elapsed seconds
Timing for main: time 2016-02-05_12:04:26 on domain   3:     .18479 elapsed seconds
Timing for main: time 2016-02-05_12:04:40 on domain   3:     .18529 elapsed seconds
Timing for main: time 2016-02-05_12:04:20 on domain   4:     .26456 elapsed seconds
Timing for main: time 2016-02-05_12:04:40 on domain   4:     .21917 elapsed seconds
Timing for main: time 2016-02-05_12:04:40 on domain   2:    1.82111 elapsed seconds
Timing for main: time 2016-02-05_12:04:53 on domain   3:     .20013 elapsed seconds
Timing for main: time 2016-02-05_12:05:06 on domain   3:     .23758 elapsed seconds
Timing for main: time 2016-02-05_12:05:20 on domain   3:     .22694 elapsed seconds
Timing for main: time 2016-02-05_12:05:00 on domain   4:     .25651 elapsed seconds
Timing for main: time 2016-02-05_12:05:20 on domain   4:     .21945 elapsed seconds
Timing for main: time 2016-02-05_12:05:20 on domain   2:    1.94485 elapsed seconds
Timing for main: time 2016-02-05_12:05:33 on domain   3:     .19577 elapsed seconds
Timing for main: time 2016-02-05_12:05:46 on domain   3:     .18579 elapsed seconds
Timing for main: time 2016-02-05_12:06:00 on domain   3:     .18669 elapsed seconds
Timing for main: time 2016-02-05_12:05:40 on domain   4:     .23065 elapsed seconds
Timing for main: time 2016-02-05_12:06:00 on domain   4:     .22040 elapsed seconds
Timing for main: time 2016-02-05_12:06:00 on domain   2:    1.79445 elapsed seconds
Timing for main: time 2016-02-05_12:06:00 on domain   1:    5.96717 elapsed seconds
Timing for main: time 2016-02-05_12:06:13 on domain   3:     .21726 elapsed seconds
Timing for main: time 2016-02-05_12:06:26 on domain   3:     .19777 elapsed seconds
Timing for main: time 2016-02-05_12:06:40 on domain   3:     .18501 elapsed seconds
Timing for main: time 2016-02-05_12:06:20 on domain   4:     .23054 elapsed seconds
Timing for main: time 2016-02-05_12:06:40 on domain   4:     .21960 elapsed seconds
Timing for main: time 2016-02-05_12:06:40 on domain   2:    1.82190 elapsed seconds
Timing for main: time 2016-02-05_12:06:53 on domain   3:     .19676 elapsed seconds
Timing for main: time 2016-02-05_12:07:06 on domain   3:     .18466 elapsed seconds
Timing for main: time 2016-02-05_12:07:20 on domain   3:     .18488 elapsed seconds
Timing for main: time 2016-02-05_12:07:00 on domain   4:     .23306 elapsed seconds
Timing for main: time 2016-02-05_12:07:20 on domain   4:     .22035 elapsed seconds
Timing for main: time 2016-02-05_12:07:20 on domain   2:    1.79510 elapsed seconds
Timing for main: time 2016-02-05_12:07:33 on domain   3:     .19668 elapsed seconds
Timing for main: time 2016-02-05_12:07:46 on domain   3:     .18501 elapsed seconds
Timing for main: time 2016-02-05_12:08:00 on domain   3:     .18427 elapsed seconds
Timing for main: time 2016-02-05_12:07:40 on domain   4:     .22979 elapsed seconds
Timing for main: time 2016-02-05_12:08:00 on domain   4:     .22128 elapsed seconds
Timing for main: time 2016-02-05_12:08:00 on domain   2:    1.79484 elapsed seconds
Timing for main: time 2016-02-05_12:08:00 on domain   1:    5.81297 elapsed seconds
Timing for main: time 2016-02-05_12:08:13 on domain   3:     .19689 elapsed seconds
Timing for main: time 2016-02-05_12:08:26 on domain   3:     .18457 elapsed seconds
Timing for main: time 2016-02-05_12:08:40 on domain   3:     .18469 elapsed seconds
Timing for main: time 2016-02-05_12:08:20 on domain   4:     .23114 elapsed seconds
Timing for main: time 2016-02-05_12:08:40 on domain   4:     .22038 elapsed seconds
Timing for main: time 2016-02-05_12:08:40 on domain   2:    1.78818 elapsed seconds
Timing for main: time 2016-02-05_12:08:53 on domain   3:     .19627 elapsed seconds
Timing for main: time 2016-02-05_12:09:06 on domain   3:     .18602 elapsed seconds
Timing for main: time 2016-02-05_12:09:20 on domain   3:     .18448 elapsed seconds
Timing for main: time 2016-02-05_12:09:00 on domain   4:     .23068 elapsed seconds
Timing for main: time 2016-02-05_12:09:20 on domain   4:     .22393 elapsed seconds
Timing for main: time 2016-02-05_12:09:20 on domain   2:    1.79840 elapsed seconds
Timing for main: time 2016-02-05_12:09:33 on domain   3:     .19708 elapsed seconds
Timing for main: time 2016-02-05_12:09:46 on domain   3:     .18581 elapsed seconds
Timing for main: time 2016-02-05_12:10:00 on domain   3:     .18545 elapsed seconds
Timing for main: time 2016-02-05_12:09:40 on domain   4:     .23085 elapsed seconds
Timing for main: time 2016-02-05_12:10:00 on domain   4:     .23027 elapsed seconds
Timing for main: time 2016-02-05_12:10:00 on domain   2:    1.80340 elapsed seconds
Timing for main: time 2016-02-05_12:10:00 on domain   1:    5.79172 elapsed seconds
Timing for main: time 2016-02-05_12:10:13 on domain   3:     .20387 elapsed seconds
Timing for main: time 2016-02-05_12:10:26 on domain   3:     .18546 elapsed seconds
Timing for main: time 2016-02-05_12:10:40 on domain   3:     .18385 elapsed seconds
Timing for main: time 2016-02-05_12:10:20 on domain   4:     .22984 elapsed seconds
Timing for main: time 2016-02-05_12:10:40 on domain   4:     .22163 elapsed seconds
Timing for main: time 2016-02-05_12:10:40 on domain   2:    1.80391 elapsed seconds
Timing for main: time 2016-02-05_12:10:53 on domain   3:     .19508 elapsed seconds
Timing for main: time 2016-02-05_12:11:06 on domain   3:     .18897 elapsed seconds
Timing for main: time 2016-02-05_12:11:20 on domain   3:     .18811 elapsed seconds
Timing for main: time 2016-02-05_12:11:00 on domain   4:     .23049 elapsed seconds
Timing for main: time 2016-02-05_12:11:20 on domain   4:     .22133 elapsed seconds
Timing for main: time 2016-02-05_12:11:20 on domain   2:    1.79970 elapsed seconds
Timing for main: time 2016-02-05_12:11:33 on domain   3:     .19599 elapsed seconds
Timing for main: time 2016-02-05_12:11:46 on domain   3:     .18470 elapsed seconds
Timing for main: time 2016-02-05_12:12:00 on domain   3:     .18440 elapsed seconds
Timing for main: time 2016-02-05_12:11:40 on domain   4:     .23661 elapsed seconds
Timing for main: time 2016-02-05_12:12:00 on domain   4:     .21828 elapsed seconds
Timing for main: time 2016-02-05_12:12:00 on domain   2:    1.79861 elapsed seconds
Timing for main: time 2016-02-05_12:12:00 on domain   1:    5.81563 elapsed seconds
Timing for main: time 2016-02-05_12:12:13 on domain   3:     .19613 elapsed seconds
Timing for main: time 2016-02-05_12:12:26 on domain   3:     .18412 elapsed seconds
Timing for main: time 2016-02-05_12:12:40 on domain   3:     .18704 elapsed seconds
Timing for main: time 2016-02-05_12:12:20 on domain   4:     .23167 elapsed seconds
Timing for main: time 2016-02-05_12:12:40 on domain   4:     .22108 elapsed seconds
Timing for main: time 2016-02-05_12:12:40 on domain   2:    1.79081 elapsed seconds
Timing for main: time 2016-02-05_12:12:53 on domain   3:     .19622 elapsed seconds
Timing for main: time 2016-02-05_12:13:06 on domain   3:     .18696 elapsed seconds
Timing for main: time 2016-02-05_12:13:20 on domain   3:     .18462 elapsed seconds
Timing for main: time 2016-02-05_12:13:00 on domain   4:     .23187 elapsed seconds
Timing for main: time 2016-02-05_12:13:20 on domain   4:     .22114 elapsed seconds
Timing for main: time 2016-02-05_12:13:20 on domain   2:    1.79854 elapsed seconds
Timing for main: time 2016-02-05_12:13:33 on domain   3:     .19454 elapsed seconds
Timing for main: time 2016-02-05_12:13:46 on domain   3:     .18531 elapsed seconds
Timing for main: time 2016-02-05_12:14:00 on domain   3:     .18536 elapsed seconds
Timing for main: time 2016-02-05_12:13:40 on domain   4:     .23063 elapsed seconds
Timing for main: time 2016-02-05_12:14:00 on domain   4:     .22186 elapsed seconds
Timing for main: time 2016-02-05_12:14:00 on domain   2:    1.79528 elapsed seconds
Timing for main: time 2016-02-05_12:14:00 on domain   1:    5.78670 elapsed seconds
Timing for main: time 2016-02-05_12:14:13 on domain   3:     .19450 elapsed seconds
Timing for main: time 2016-02-05_12:14:26 on domain   3:     .18610 elapsed seconds
Timing for main: time 2016-02-05_12:14:40 on domain   3:     .18452 elapsed seconds
Timing for main: time 2016-02-05_12:14:20 on domain   4:     .23033 elapsed seconds
Timing for main: time 2016-02-05_12:14:40 on domain   4:     .22169 elapsed seconds
Timing for main: time 2016-02-05_12:14:40 on domain   2:    1.79170 elapsed seconds
Timing for main: time 2016-02-05_12:14:53 on domain   3:     .19610 elapsed seconds
Timing for main: time 2016-02-05_12:15:06 on domain   3:     .18511 elapsed seconds
Timing for main: time 2016-02-05_12:15:20 on domain   3:     .19170 elapsed seconds
Timing for main: time 2016-02-05_12:15:00 on domain   4:     .24261 elapsed seconds
Timing for main: time 2016-02-05_12:15:20 on domain   4:     .21992 elapsed seconds
Timing for main: time 2016-02-05_12:15:20 on domain   2:    1.81405 elapsed seconds
Timing for main: time 2016-02-05_12:15:33 on domain   3:     .19522 elapsed seconds
Timing for main: time 2016-02-05_12:15:46 on domain   3:     .18663 elapsed seconds
Timing for main: time 2016-02-05_12:16:00 on domain   3:     .18406 elapsed seconds
Timing for main: time 2016-02-05_12:15:40 on domain   4:     .23246 elapsed seconds
Timing for main: time 2016-02-05_12:16:00 on domain   4:     .22046 elapsed seconds
Timing for main: time 2016-02-05_12:16:00 on domain   2:    1.80453 elapsed seconds
Timing for main: time 2016-02-05_12:16:00 on domain   1:    5.81265 elapsed seconds
Timing for main: time 2016-02-05_12:16:13 on domain   3:     .19514 elapsed seconds
Timing for main: time 2016-02-05_12:16:26 on domain   3:     .18534 elapsed seconds
Timing for main: time 2016-02-05_12:16:40 on domain   3:     .18406 elapsed seconds
Timing for main: time 2016-02-05_12:16:20 on domain   4:     .23278 elapsed seconds
Timing for main: time 2016-02-05_12:16:40 on domain   4:     .22237 elapsed seconds
Timing for main: time 2016-02-05_12:16:40 on domain   2:    1.79131 elapsed seconds
Timing for main: time 2016-02-05_12:16:53 on domain   3:     .19602 elapsed seconds
Timing for main: time 2016-02-05_12:17:06 on domain   3:     .18450 elapsed seconds
Timing for main: time 2016-02-05_12:17:20 on domain   3:     .18425 elapsed seconds
Timing for main: time 2016-02-05_12:17:00 on domain   4:     .23256 elapsed seconds
Timing for main: time 2016-02-05_12:17:20 on domain   4:     .22079 elapsed seconds
Timing for main: time 2016-02-05_12:17:20 on domain   2:    1.79552 elapsed seconds
Timing for main: time 2016-02-05_12:17:33 on domain   3:     .19475 elapsed seconds
Timing for main: time 2016-02-05_12:17:46 on domain   3:     .18550 elapsed seconds
Timing for main: time 2016-02-05_12:18:00 on domain   3:     .18528 elapsed seconds
Timing for main: time 2016-02-05_12:17:40 on domain   4:     .23101 elapsed seconds
Timing for main: time 2016-02-05_12:18:00 on domain   4:     .22228 elapsed seconds
Timing for main: time 2016-02-05_12:18:00 on domain   2:    1.79761 elapsed seconds
Timing for main: time 2016-02-05_12:18:00 on domain   1:    5.79215 elapsed seconds
Timing for main: time 2016-02-05_12:18:13 on domain   3:     .19481 elapsed seconds
Timing for main: time 2016-02-05_12:18:26 on domain   3:     .18779 elapsed seconds
Timing for main: time 2016-02-05_12:18:40 on domain   3:     .18499 elapsed seconds
Timing for main: time 2016-02-05_12:18:20 on domain   4:     .23239 elapsed seconds
Timing for main: time 2016-02-05_12:18:40 on domain   4:     .22061 elapsed seconds
Timing for main: time 2016-02-05_12:18:40 on domain   2:    1.79267 elapsed seconds
Timing for main: time 2016-02-05_12:18:53 on domain   3:     .19653 elapsed seconds
Timing for main: time 2016-02-05_12:19:06 on domain   3:     .18473 elapsed seconds
Timing for main: time 2016-02-05_12:19:20 on domain   3:     .18361 elapsed seconds
Timing for main: time 2016-02-05_12:19:00 on domain   4:     .23502 elapsed seconds
Timing for main: time 2016-02-05_12:19:20 on domain   4:     .22110 elapsed seconds
Timing for main: time 2016-02-05_12:19:20 on domain   2:    1.79952 elapsed seconds
Timing for main: time 2016-02-05_12:19:33 on domain   3:     .19875 elapsed seconds
Timing for main: time 2016-02-05_12:19:46 on domain   3:     .18552 elapsed seconds
Timing for main: time 2016-02-05_12:20:00 on domain   3:     .18794 elapsed seconds
Timing for main: time 2016-02-05_12:19:40 on domain   4:     .23091 elapsed seconds
Timing for main: time 2016-02-05_12:20:00 on domain   4:     .23085 elapsed seconds
Timing for main: time 2016-02-05_12:20:00 on domain   2:    1.81110 elapsed seconds
Timing for main: time 2016-02-05_12:20:00 on domain   1:    5.80324 elapsed seconds
Timing for main: time 2016-02-05_12:20:13 on domain   3:     .19699 elapsed seconds
Timing for main: time 2016-02-05_12:20:26 on domain   3:     .19082 elapsed seconds
Timing for main: time 2016-02-05_12:20:40 on domain   3:     .18412 elapsed seconds
Timing for main: time 2016-02-05_12:20:20 on domain   4:     .23136 elapsed seconds
Timing for main: time 2016-02-05_12:20:40 on domain   4:     .22051 elapsed seconds
Timing for main: time 2016-02-05_12:20:40 on domain   2:    1.79577 elapsed seconds
Timing for main: time 2016-02-05_12:20:53 on domain   3:     .19816 elapsed seconds
Timing for main: time 2016-02-05_12:21:06 on domain   3:     .18309 elapsed seconds
Timing for main: time 2016-02-05_12:21:20 on domain   3:     .18489 elapsed seconds
Timing for main: time 2016-02-05_12:21:00 on domain   4:     .23212 elapsed seconds
Timing for main: time 2016-02-05_12:21:20 on domain   4:     .22307 elapsed seconds
Timing for main: time 2016-02-05_12:21:20 on domain   2:    1.80645 elapsed seconds
Timing for main: time 2016-02-05_12:21:33 on domain   3:     .19577 elapsed seconds
Timing for main: time 2016-02-05_12:21:46 on domain   3:     .24184 elapsed seconds
Timing for main: time 2016-02-05_12:22:00 on domain   3:     .24235 elapsed seconds
Timing for main: time 2016-02-05_12:21:40 on domain   4:     .23171 elapsed seconds
Timing for main: time 2016-02-05_12:22:00 on domain   4:     .22081 elapsed seconds
Timing for main: time 2016-02-05_12:22:00 on domain   2:    1.90654 elapsed seconds
Timing for main: time 2016-02-05_12:22:00 on domain   1:    5.90985 elapsed seconds
Timing for main: time 2016-02-05_12:22:13 on domain   3:     .19621 elapsed seconds
Timing for main: time 2016-02-05_12:22:26 on domain   3:     .18492 elapsed seconds
Timing for main: time 2016-02-05_12:22:40 on domain   3:     .18550 elapsed seconds
Timing for main: time 2016-02-05_12:22:20 on domain   4:     .23192 elapsed seconds
Timing for main: time 2016-02-05_12:22:40 on domain   4:     .22184 elapsed seconds
Timing for main: time 2016-02-05_12:22:40 on domain   2:    1.78701 elapsed seconds
Timing for main: time 2016-02-05_12:22:53 on domain   3:     .19661 elapsed seconds
Timing for main: time 2016-02-05_12:23:06 on domain   3:     .18609 elapsed seconds
Timing for main: time 2016-02-05_12:23:20 on domain   3:     .18415 elapsed seconds
Timing for main: time 2016-02-05_12:23:00 on domain   4:     .23217 elapsed seconds
Timing for main: time 2016-02-05_12:23:20 on domain   4:     .22246 elapsed seconds
Timing for main: time 2016-02-05_12:23:20 on domain   2:    1.79614 elapsed seconds
Timing for main: time 2016-02-05_12:23:33 on domain   3:     .19597 elapsed seconds
Timing for main: time 2016-02-05_12:23:46 on domain   3:     .18465 elapsed seconds
Timing for main: time 2016-02-05_12:24:00 on domain   3:     .18473 elapsed seconds
Timing for main: time 2016-02-05_12:23:40 on domain   4:     .23163 elapsed seconds
Timing for main: time 2016-02-05_12:24:00 on domain   4:     .22008 elapsed seconds
Timing for main: time 2016-02-05_12:24:00 on domain   2:    1.79900 elapsed seconds
Timing for main: time 2016-02-05_12:24:00 on domain   1:    5.78801 elapsed seconds
Timing for main: time 2016-02-05_12:24:13 on domain   3:     .19579 elapsed seconds
Timing for main: time 2016-02-05_12:24:26 on domain   3:     .18395 elapsed seconds
Timing for main: time 2016-02-05_12:24:40 on domain   3:     .18557 elapsed seconds
Timing for main: time 2016-02-05_12:24:20 on domain   4:     .23227 elapsed seconds
Timing for main: time 2016-02-05_12:24:40 on domain   4:     .22144 elapsed seconds
Timing for main: time 2016-02-05_12:24:40 on domain   2:    1.79125 elapsed seconds
Timing for main: time 2016-02-05_12:24:53 on domain   3:     .19721 elapsed seconds
Timing for main: time 2016-02-05_12:25:06 on domain   3:     .18180 elapsed seconds
Timing for main: time 2016-02-05_12:25:20 on domain   3:     .18664 elapsed seconds
Timing for main: time 2016-02-05_12:25:00 on domain   4:     .24120 elapsed seconds
Timing for main: time 2016-02-05_12:25:20 on domain   4:     .22027 elapsed seconds
Timing for main: time 2016-02-05_12:25:20 on domain   2:    1.80208 elapsed seconds
Timing for main: time 2016-02-05_12:25:33 on domain   3:     .20339 elapsed seconds
Timing for main: time 2016-02-05_12:25:46 on domain   3:     .18615 elapsed seconds
Timing for main: time 2016-02-05_12:26:00 on domain   3:     .18404 elapsed seconds
Timing for main: time 2016-02-05_12:25:40 on domain   4:     .23166 elapsed seconds
Timing for main: time 2016-02-05_12:26:00 on domain   4:     .22153 elapsed seconds
Timing for main: time 2016-02-05_12:26:00 on domain   2:    1.80371 elapsed seconds
Timing for main: time 2016-02-05_12:26:00 on domain   1:    5.79806 elapsed seconds
Timing for main: time 2016-02-05_12:26:13 on domain   3:     .19469 elapsed seconds
Timing for main: time 2016-02-05_12:26:26 on domain   3:     .18594 elapsed seconds
Timing for main: time 2016-02-05_12:26:40 on domain   3:     .18386 elapsed seconds
Timing for main: time 2016-02-05_12:26:20 on domain   4:     .24273 elapsed seconds
Timing for main: time 2016-02-05_12:26:40 on domain   4:     .28294 elapsed seconds
Timing for main: time 2016-02-05_12:26:40 on domain   2:    1.87180 elapsed seconds
Timing for main: time 2016-02-05_12:26:53 on domain   3:     .19651 elapsed seconds
Timing for main: time 2016-02-05_12:27:06 on domain   3:     .18555 elapsed seconds
Timing for main: time 2016-02-05_12:27:20 on domain   3:     .23597 elapsed seconds
Timing for main: time 2016-02-05_12:27:00 on domain   4:     .23141 elapsed seconds
Timing for main: time 2016-02-05_12:27:20 on domain   4:     .22138 elapsed seconds
Timing for main: time 2016-02-05_12:27:20 on domain   2:    1.95214 elapsed seconds
Timing for main: time 2016-02-05_12:27:33 on domain   3:     .19563 elapsed seconds
Timing for main: time 2016-02-05_12:27:46 on domain   3:     .18485 elapsed seconds
Timing for main: time 2016-02-05_12:28:00 on domain   3:     .18514 elapsed seconds
Timing for main: time 2016-02-05_12:27:40 on domain   4:     .23140 elapsed seconds
Timing for main: time 2016-02-05_12:28:00 on domain   4:     .22177 elapsed seconds
Timing for main: time 2016-02-05_12:28:00 on domain   2:    1.79639 elapsed seconds
Timing for main: time 2016-02-05_12:28:00 on domain   1:    6.02189 elapsed seconds
  photolysis_driver: called for domain  1
Timing for main: time 2016-02-05_12:28:13 on domain   3:     .19596 elapsed seconds
Timing for main: time 2016-02-05_12:28:26 on domain   3:     .18537 elapsed seconds
Timing for main: time 2016-02-05_12:28:40 on domain   3:     .18930 elapsed seconds
Timing for main: time 2016-02-05_12:28:20 on domain   4:     .23146 elapsed seconds
Timing for main: time 2016-02-05_12:28:40 on domain   4:     .22183 elapsed seconds
Timing for main: time 2016-02-05_12:28:40 on domain   2:    1.79591 elapsed seconds
Timing for main: time 2016-02-05_12:28:53 on domain   3:     .19440 elapsed seconds
Timing for main: time 2016-02-05_12:29:06 on domain   3:     .18812 elapsed seconds
Timing for main: time 2016-02-05_12:29:20 on domain   3:     .18406 elapsed seconds
Timing for main: time 2016-02-05_12:29:00 on domain   4:     .23197 elapsed seconds
Timing for main: time 2016-02-05_12:29:20 on domain   4:     .22190 elapsed seconds
Timing for main: time 2016-02-05_12:29:20 on domain   2:    1.79872 elapsed seconds
  photolysis_driver: called for domain  2
Timing for main: time 2016-02-05_12:29:33 on domain   3:     .19403 elapsed seconds
Timing for main: time 2016-02-05_12:29:46 on domain   3:     .18504 elapsed seconds
  photolysis_driver: called for domain  3
Timing for main: time 2016-02-05_12:30:00 on domain   3:     .87004 elapsed seconds
Timing for main: time 2016-02-05_12:29:40 on domain   4:     .23289 elapsed seconds
  photolysis_driver: called for domain  4
Timing for main: time 2016-02-05_12:30:00 on domain   4:    1.06633 elapsed seconds
Timing for main: time 2016-02-05_12:30:00 on domain   2:    4.20643 elapsed seconds
Timing for main: time 2016-02-05_12:30:00 on domain   1:    8.73402 elapsed seconds
Timing for main: time 2016-02-05_12:30:13 on domain   3:     .33860 elapsed seconds
Timing for main: time 2016-02-05_12:30:26 on domain   3:     .18762 elapsed seconds
Timing for main: time 2016-02-05_12:30:40 on domain   3:     .18954 elapsed seconds
Timing for main: time 2016-02-05_12:30:20 on domain   4:     .40625 elapsed seconds
Timing for main: time 2016-02-05_12:30:40 on domain   4:     .22051 elapsed seconds
Timing for main: time 2016-02-05_12:30:40 on domain   2:    2.33213 elapsed seconds
Timing for main: time 2016-02-05_12:30:53 on domain   3:     .19491 elapsed seconds
Timing for main: time 2016-02-05_12:31:06 on domain   3:     .18382 elapsed seconds
Timing for main: time 2016-02-05_12:31:20 on domain   3:     .18331 elapsed seconds
Timing for main: time 2016-02-05_12:31:00 on domain   4:     .23669 elapsed seconds
Timing for main: time 2016-02-05_12:31:20 on domain   4:     .22031 elapsed seconds
Timing for main: time 2016-02-05_12:31:20 on domain   2:    1.79585 elapsed seconds
Timing for main: time 2016-02-05_12:31:33 on domain   3:     .19444 elapsed seconds
Timing for main: time 2016-02-05_12:31:46 on domain   3:     .18581 elapsed seconds
Timing for main: time 2016-02-05_12:32:00 on domain   3:     .18427 elapsed seconds
Timing for main: time 2016-02-05_12:31:40 on domain   4:     .23088 elapsed seconds
Timing for main: time 2016-02-05_12:32:00 on domain   4:     .22031 elapsed seconds
Timing for main: time 2016-02-05_12:32:00 on domain   2:    1.79815 elapsed seconds
Timing for main: time 2016-02-05_12:32:00 on domain   1:    6.46331 elapsed seconds
Timing for main: time 2016-02-05_12:32:13 on domain   3:     .19454 elapsed seconds
Timing for main: time 2016-02-05_12:32:26 on domain   3:     .18877 elapsed seconds
Timing for main: time 2016-02-05_12:32:40 on domain   3:     .18409 elapsed seconds
Timing for main: time 2016-02-05_12:32:20 on domain   4:     .23437 elapsed seconds
Timing for main: time 2016-02-05_12:32:40 on domain   4:     .21900 elapsed seconds
Timing for main: time 2016-02-05_12:32:40 on domain   2:    1.79192 elapsed seconds
Timing for main: time 2016-02-05_12:32:53 on domain   3:     .19384 elapsed seconds
Timing for main: time 2016-02-05_12:33:06 on domain   3:     .18409 elapsed seconds
Timing for main: time 2016-02-05_12:33:20 on domain   3:     .18487 elapsed seconds
Timing for main: time 2016-02-05_12:33:00 on domain   4:     .23079 elapsed seconds
Timing for main: time 2016-02-05_12:33:20 on domain   4:     .22050 elapsed seconds
Timing for main: time 2016-02-05_12:33:20 on domain   2:    1.78975 elapsed seconds
Timing for main: time 2016-02-05_12:33:33 on domain   3:     .19509 elapsed seconds
Timing for main: time 2016-02-05_12:33:46 on domain   3:     .18288 elapsed seconds
Timing for main: time 2016-02-05_12:34:00 on domain   3:     .18430 elapsed seconds
Timing for main: time 2016-02-05_12:33:40 on domain   4:     .23390 elapsed seconds
Timing for main: time 2016-02-05_12:34:00 on domain   4:     .21930 elapsed seconds
Timing for main: time 2016-02-05_12:34:00 on domain   2:    1.79040 elapsed seconds
Timing for main: time 2016-02-05_12:34:00 on domain   1:    5.77327 elapsed seconds
Timing for main: time 2016-02-05_12:34:13 on domain   3:     .19393 elapsed seconds
Timing for main: time 2016-02-05_12:34:26 on domain   3:     .18400 elapsed seconds
Timing for main: time 2016-02-05_12:34:40 on domain   3:     .18600 elapsed seconds
Timing for main: time 2016-02-05_12:34:20 on domain   4:     .22938 elapsed seconds
Timing for main: time 2016-02-05_12:34:40 on domain   4:     .21997 elapsed seconds
Timing for main: time 2016-02-05_12:34:40 on domain   2:    1.78337 elapsed seconds
Timing for main: time 2016-02-05_12:34:53 on domain   3:     .19413 elapsed seconds
Timing for main: time 2016-02-05_12:35:06 on domain   3:     .18377 elapsed seconds
Timing for main: time 2016-02-05_12:35:20 on domain   3:     .18417 elapsed seconds
Timing for main: time 2016-02-05_12:35:00 on domain   4:     .24074 elapsed seconds
Timing for main: time 2016-02-05_12:35:20 on domain   4:     .21987 elapsed seconds
Timing for main: time 2016-02-05_12:35:20 on domain   2:    1.79904 elapsed seconds
Timing for main: time 2016-02-05_12:35:33 on domain   3:     .19374 elapsed seconds
Timing for main: time 2016-02-05_12:35:46 on domain   3:     .19222 elapsed seconds
Timing for main: time 2016-02-05_12:36:00 on domain   3:     .18262 elapsed seconds
Timing for main: time 2016-02-05_12:35:40 on domain   4:     .23092 elapsed seconds
Timing for main: time 2016-02-05_12:36:00 on domain   4:     .22035 elapsed seconds
Timing for main: time 2016-02-05_12:36:00 on domain   2:    1.79782 elapsed seconds
Timing for main: time 2016-02-05_12:36:00 on domain   1:    5.78781 elapsed seconds
Timing for main: time 2016-02-05_12:36:13 on domain   3:     .19339 elapsed seconds
Timing for main: time 2016-02-05_12:36:26 on domain   3:     .18410 elapsed seconds
Timing for main: time 2016-02-05_12:36:40 on domain   3:     .18210 elapsed seconds
Timing for main: time 2016-02-05_12:36:20 on domain   4:     .23198 elapsed seconds
Timing for main: time 2016-02-05_12:36:40 on domain   4:     .21943 elapsed seconds
Timing for main: time 2016-02-05_12:36:40 on domain   2:    1.78096 elapsed seconds
Timing for main: time 2016-02-05_12:36:53 on domain   3:     .19347 elapsed seconds
Timing for main: time 2016-02-05_12:37:06 on domain   3:     .18278 elapsed seconds
Timing for main: time 2016-02-05_12:37:20 on domain   3:     .18342 elapsed seconds
Timing for main: time 2016-02-05_12:37:00 on domain   4:     .22930 elapsed seconds
Timing for main: time 2016-02-05_12:37:20 on domain   4:     .22264 elapsed seconds
Timing for main: time 2016-02-05_12:37:20 on domain   2:    1.79857 elapsed seconds
Timing for main: time 2016-02-05_12:37:33 on domain   3:     .20553 elapsed seconds
Timing for main: time 2016-02-05_12:37:46 on domain   3:     .18298 elapsed seconds
Timing for main: time 2016-02-05_12:38:00 on domain   3:     .18380 elapsed seconds
Timing for main: time 2016-02-05_12:37:40 on domain   4:     .22949 elapsed seconds
Timing for main: time 2016-02-05_12:38:00 on domain   4:     .22215 elapsed seconds
Timing for main: time 2016-02-05_12:38:00 on domain   2:    1.80144 elapsed seconds
Timing for main: time 2016-02-05_12:38:00 on domain   1:    5.78265 elapsed seconds
Timing for main: time 2016-02-05_12:38:13 on domain   3:     .19661 elapsed seconds
Timing for main: time 2016-02-05_12:38:26 on domain   3:     .18062 elapsed seconds
Timing for main: time 2016-02-05_12:38:40 on domain   3:     .18353 elapsed seconds
Timing for main: time 2016-02-05_12:38:20 on domain   4:     .23516 elapsed seconds
Timing for main: time 2016-02-05_12:38:40 on domain   4:     .22092 elapsed seconds
Timing for main: time 2016-02-05_12:38:40 on domain   2:    1.78696 elapsed seconds
Timing for main: time 2016-02-05_12:38:53 on domain   3:     .19543 elapsed seconds
Timing for main: time 2016-02-05_12:39:06 on domain   3:     .18818 elapsed seconds
Timing for main: time 2016-02-05_12:39:20 on domain   3:     .18083 elapsed seconds
Timing for main: time 2016-02-05_12:39:00 on domain   4:     .23098 elapsed seconds
Timing for main: time 2016-02-05_12:39:20 on domain   4:     .22135 elapsed seconds
Timing for main: time 2016-02-05_12:39:20 on domain   2:    1.79307 elapsed seconds
Timing for main: time 2016-02-05_12:39:33 on domain   3:     .19552 elapsed seconds
Timing for main: time 2016-02-05_12:39:46 on domain   3:     .18258 elapsed seconds
Timing for main: time 2016-02-05_12:40:00 on domain   3:     .18339 elapsed seconds
Timing for main: time 2016-02-05_12:39:40 on domain   4:     .23140 elapsed seconds
Timing for main: time 2016-02-05_12:40:00 on domain   4:     .22896 elapsed seconds
Timing for main: time 2016-02-05_12:40:00 on domain   2:    1.79926 elapsed seconds
Timing for main: time 2016-02-05_12:40:00 on domain   1:    5.78057 elapsed seconds
Timing for main: time 2016-02-05_12:40:13 on domain   3:     .19763 elapsed seconds
Timing for main: time 2016-02-05_12:40:26 on domain   3:     .18030 elapsed seconds
Timing for main: time 2016-02-05_12:40:40 on domain   3:     .18301 elapsed seconds
Timing for main: time 2016-02-05_12:40:20 on domain   4:     .23151 elapsed seconds
Timing for main: time 2016-02-05_12:40:40 on domain   4:     .21848 elapsed seconds
Timing for main: time 2016-02-05_12:40:40 on domain   2:    1.78194 elapsed seconds
Timing for main: time 2016-02-05_12:40:53 on domain   3:     .20124 elapsed seconds
Timing for main: time 2016-02-05_12:41:06 on domain   3:     .18397 elapsed seconds
Timing for main: time 2016-02-05_12:41:20 on domain   3:     .18382 elapsed seconds
Timing for main: time 2016-02-05_12:41:00 on domain   4:     .23079 elapsed seconds
Timing for main: time 2016-02-05_12:41:20 on domain   4:     .22106 elapsed seconds
Timing for main: time 2016-02-05_12:41:20 on domain   2:    1.79901 elapsed seconds
Timing for main: time 2016-02-05_12:41:33 on domain   3:     .19376 elapsed seconds
Timing for main: time 2016-02-05_12:41:46 on domain   3:     .18781 elapsed seconds
Timing for main: time 2016-02-05_12:42:00 on domain   3:     .18347 elapsed seconds
Timing for main: time 2016-02-05_12:41:40 on domain   4:     .23114 elapsed seconds
Timing for main: time 2016-02-05_12:42:00 on domain   4:     .22122 elapsed seconds
Timing for main: time 2016-02-05_12:42:00 on domain   2:    1.79393 elapsed seconds
Timing for main: time 2016-02-05_12:42:00 on domain   1:    5.78206 elapsed seconds
Timing for main: time 2016-02-05_12:42:13 on domain   3:     .19559 elapsed seconds
Timing for main: time 2016-02-05_12:42:26 on domain   3:     .18220 elapsed seconds
Timing for main: time 2016-02-05_12:42:40 on domain   3:     .18499 elapsed seconds
Timing for main: time 2016-02-05_12:42:20 on domain   4:     .23043 elapsed seconds
Timing for main: time 2016-02-05_12:42:40 on domain   4:     .22076 elapsed seconds
Timing for main: time 2016-02-05_12:42:40 on domain   2:    1.79245 elapsed seconds
Timing for main: time 2016-02-05_12:42:53 on domain   3:     .19435 elapsed seconds
Timing for main: time 2016-02-05_12:43:06 on domain   3:     .18511 elapsed seconds
Timing for main: time 2016-02-05_12:43:20 on domain   3:     .18103 elapsed seconds
Timing for main: time 2016-02-05_12:43:00 on domain   4:     .23419 elapsed seconds
Timing for main: time 2016-02-05_12:43:20 on domain   4:     .22383 elapsed seconds
Timing for main: time 2016-02-05_12:43:20 on domain   2:    1.80328 elapsed seconds
Timing for main: time 2016-02-05_12:43:33 on domain   3:     .19402 elapsed seconds
Timing for main: time 2016-02-05_12:43:46 on domain   3:     .18322 elapsed seconds
Timing for main: time 2016-02-05_12:44:00 on domain   3:     .18350 elapsed seconds
Timing for main: time 2016-02-05_12:43:40 on domain   4:     .22925 elapsed seconds
Timing for main: time 2016-02-05_12:44:00 on domain   4:     .22020 elapsed seconds
Timing for main: time 2016-02-05_12:44:00 on domain   2:    1.78837 elapsed seconds
Timing for main: time 2016-02-05_12:44:00 on domain   1:    5.78429 elapsed seconds
Timing for main: time 2016-02-05_12:44:13 on domain   3:     .19348 elapsed seconds
Timing for main: time 2016-02-05_12:44:26 on domain   3:     .18456 elapsed seconds
Timing for main: time 2016-02-05_12:44:40 on domain   3:     .18320 elapsed seconds
Timing for main: time 2016-02-05_12:44:20 on domain   4:     .23092 elapsed seconds
Timing for main: time 2016-02-05_12:44:40 on domain   4:     .22064 elapsed seconds
Timing for main: time 2016-02-05_12:44:40 on domain   2:    1.78437 elapsed seconds
Timing for main: time 2016-02-05_12:44:53 on domain   3:     .19660 elapsed seconds
Timing for main: time 2016-02-05_12:45:06 on domain   3:     .18179 elapsed seconds
Timing for main: time 2016-02-05_12:45:20 on domain   3:     .18288 elapsed seconds
Timing for main: time 2016-02-05_12:45:00 on domain   4:     .23987 elapsed seconds
Timing for main: time 2016-02-05_12:45:20 on domain   4:     .22079 elapsed seconds
Timing for main: time 2016-02-05_12:45:20 on domain   2:    1.79881 elapsed seconds
Timing for main: time 2016-02-05_12:45:33 on domain   3:     .19354 elapsed seconds
Timing for main: time 2016-02-05_12:45:46 on domain   3:     .18797 elapsed seconds
Timing for main: time 2016-02-05_12:46:00 on domain   3:     .18738 elapsed seconds
Timing for main: time 2016-02-05_12:45:40 on domain   4:     .23094 elapsed seconds
Timing for main: time 2016-02-05_12:46:00 on domain   4:     .21980 elapsed seconds
Timing for main: time 2016-02-05_12:46:00 on domain   2:    1.79541 elapsed seconds
Timing for main: time 2016-02-05_12:46:00 on domain   1:    5.78092 elapsed seconds
Timing for main: time 2016-02-05_12:46:13 on domain   3:     .21654 elapsed seconds
Timing for main: time 2016-02-05_12:46:26 on domain   3:     .25335 elapsed seconds
Timing for main: time 2016-02-05_12:46:40 on domain   3:     .18273 elapsed seconds
Timing for main: time 2016-02-05_12:46:20 on domain   4:     .23090 elapsed seconds
Timing for main: time 2016-02-05_12:46:40 on domain   4:     .22069 elapsed seconds
Timing for main: time 2016-02-05_12:46:40 on domain   2:    1.87341 elapsed seconds
Timing for main: time 2016-02-05_12:46:53 on domain   3:     .19428 elapsed seconds
Timing for main: time 2016-02-05_12:47:06 on domain   3:     .18308 elapsed seconds
Timing for main: time 2016-02-05_12:47:20 on domain   3:     .18323 elapsed seconds
Timing for main: time 2016-02-05_12:47:00 on domain   4:     .23137 elapsed seconds
Timing for main: time 2016-02-05_12:47:20 on domain   4:     .22042 elapsed seconds
Timing for main: time 2016-02-05_12:47:20 on domain   2:    1.78807 elapsed seconds
Timing for main: time 2016-02-05_12:47:33 on domain   3:     .19452 elapsed seconds
Timing for main: time 2016-02-05_12:47:46 on domain   3:     .18334 elapsed seconds
Timing for main: time 2016-02-05_12:48:00 on domain   3:     .18497 elapsed seconds
Timing for main: time 2016-02-05_12:47:40 on domain   4:     .23066 elapsed seconds
Timing for main: time 2016-02-05_12:48:00 on domain   4:     .22040 elapsed seconds
Timing for main: time 2016-02-05_12:48:00 on domain   2:    1.79789 elapsed seconds
Timing for main: time 2016-02-05_12:48:00 on domain   1:    5.86757 elapsed seconds
Timing for main: time 2016-02-05_12:48:13 on domain   3:     .19478 elapsed seconds
Timing for main: time 2016-02-05_12:48:26 on domain   3:     .18354 elapsed seconds
Timing for main: time 2016-02-05_12:48:40 on domain   3:     .18351 elapsed seconds
Timing for main: time 2016-02-05_12:48:20 on domain   4:     .23283 elapsed seconds
Timing for main: time 2016-02-05_12:48:40 on domain   4:     .22053 elapsed seconds
Timing for main: time 2016-02-05_12:48:40 on domain   2:    1.78827 elapsed seconds
Timing for main: time 2016-02-05_12:48:53 on domain   3:     .19503 elapsed seconds
Timing for main: time 2016-02-05_12:49:06 on domain   3:     .18260 elapsed seconds
Timing for main: time 2016-02-05_12:49:20 on domain   3:     .18401 elapsed seconds
Timing for main: time 2016-02-05_12:49:00 on domain   4:     .23139 elapsed seconds
Timing for main: time 2016-02-05_12:49:20 on domain   4:     .22215 elapsed seconds
Timing for main: time 2016-02-05_12:49:20 on domain   2:    1.79038 elapsed seconds
Timing for main: time 2016-02-05_12:49:33 on domain   3:     .19589 elapsed seconds
Timing for main: time 2016-02-05_12:49:46 on domain   3:     .18225 elapsed seconds
Timing for main: time 2016-02-05_12:50:00 on domain   3:     .18368 elapsed seconds
Timing for main: time 2016-02-05_12:49:40 on domain   4:     .22981 elapsed seconds
Timing for main: time 2016-02-05_12:50:00 on domain   4:     .22964 elapsed seconds
Timing for main: time 2016-02-05_12:50:00 on domain   2:    1.79670 elapsed seconds
Timing for main: time 2016-02-05_12:50:00 on domain   1:    5.81121 elapsed seconds
Timing for main: time 2016-02-05_12:50:13 on domain   3:     .20003 elapsed seconds
Timing for main: time 2016-02-05_12:50:26 on domain   3:     .18422 elapsed seconds
Timing for main: time 2016-02-05_12:50:40 on domain   3:     .18554 elapsed seconds
Timing for main: time 2016-02-05_12:50:20 on domain   4:     .23050 elapsed seconds
Timing for main: time 2016-02-05_12:50:40 on domain   4:     .22064 elapsed seconds
Timing for main: time 2016-02-05_12:50:40 on domain   2:    1.79001 elapsed seconds
Timing for main: time 2016-02-05_12:50:53 on domain   3:     .19571 elapsed seconds
Timing for main: time 2016-02-05_12:51:06 on domain   3:     .19065 elapsed seconds
Timing for main: time 2016-02-05_12:51:20 on domain   3:     .18920 elapsed seconds
Timing for main: time 2016-02-05_12:51:00 on domain   4:     .23036 elapsed seconds
Timing for main: time 2016-02-05_12:51:20 on domain   4:     .22016 elapsed seconds
Timing for main: time 2016-02-05_12:51:20 on domain   2:    1.80043 elapsed seconds
Timing for main: time 2016-02-05_12:51:33 on domain   3:     .19438 elapsed seconds
Timing for main: time 2016-02-05_12:51:46 on domain   3:     .18427 elapsed seconds
Timing for main: time 2016-02-05_12:52:00 on domain   3:     .18323 elapsed seconds
Timing for main: time 2016-02-05_12:51:40 on domain   4:     .23044 elapsed seconds
Timing for main: time 2016-02-05_12:52:00 on domain   4:     .22604 elapsed seconds
Timing for main: time 2016-02-05_12:52:00 on domain   2:    1.79416 elapsed seconds
Timing for main: time 2016-02-05_12:52:00 on domain   1:    5.78596 elapsed seconds
Timing for main: time 2016-02-05_12:52:13 on domain   3:     .19399 elapsed seconds
Timing for main: time 2016-02-05_12:52:26 on domain   3:     .18489 elapsed seconds
Timing for main: time 2016-02-05_12:52:40 on domain   3:     .18421 elapsed seconds
Timing for main: time 2016-02-05_12:52:20 on domain   4:     .23082 elapsed seconds
Timing for main: time 2016-02-05_12:52:40 on domain   4:     .21982 elapsed seconds
Timing for main: time 2016-02-05_12:52:40 on domain   2:    1.78608 elapsed seconds
Timing for main: time 2016-02-05_12:52:53 on domain   3:     .20282 elapsed seconds
Timing for main: time 2016-02-05_12:53:06 on domain   3:     .19806 elapsed seconds
Timing for main: time 2016-02-05_12:53:20 on domain   3:     .18413 elapsed seconds
Timing for main: time 2016-02-05_12:53:00 on domain   4:     .23114 elapsed seconds
Timing for main: time 2016-02-05_12:53:20 on domain   4:     .21965 elapsed seconds
Timing for main: time 2016-02-05_12:53:20 on domain   2:    1.82611 elapsed seconds
Timing for main: time 2016-02-05_12:53:33 on domain   3:     .19496 elapsed seconds
Timing for main: time 2016-02-05_12:53:46 on domain   3:     .18388 elapsed seconds
Timing for main: time 2016-02-05_12:54:00 on domain   3:     .20831 elapsed seconds
Timing for main: time 2016-02-05_12:53:40 on domain   4:     .23224 elapsed seconds
Timing for main: time 2016-02-05_12:54:00 on domain   4:     .22208 elapsed seconds
Timing for main: time 2016-02-05_12:54:00 on domain   2:    1.81135 elapsed seconds
Timing for main: time 2016-02-05_12:54:00 on domain   1:    5.83093 elapsed seconds
Timing for main: time 2016-02-05_12:54:13 on domain   3:     .19612 elapsed seconds
Timing for main: time 2016-02-05_12:54:26 on domain   3:     .18213 elapsed seconds
Timing for main: time 2016-02-05_12:54:40 on domain   3:     .18535 elapsed seconds
Timing for main: time 2016-02-05_12:54:20 on domain   4:     .23023 elapsed seconds
Timing for main: time 2016-02-05_12:54:40 on domain   4:     .22012 elapsed seconds
Timing for main: time 2016-02-05_12:54:40 on domain   2:    1.78571 elapsed seconds
Timing for main: time 2016-02-05_12:54:53 on domain   3:     .19640 elapsed seconds
Timing for main: time 2016-02-05_12:55:06 on domain   3:     .18255 elapsed seconds
Timing for main: time 2016-02-05_12:55:20 on domain   3:     .18347 elapsed seconds
Timing for main: time 2016-02-05_12:55:00 on domain   4:     .23994 elapsed seconds
Timing for main: time 2016-02-05_12:55:20 on domain   4:     .22112 elapsed seconds
Timing for main: time 2016-02-05_12:55:20 on domain   2:    1.79984 elapsed seconds
Timing for main: time 2016-02-05_12:55:33 on domain   3:     .19611 elapsed seconds
Timing for main: time 2016-02-05_12:55:46 on domain   3:     .18254 elapsed seconds
Timing for main: time 2016-02-05_12:56:00 on domain   3:     .18454 elapsed seconds
Timing for main: time 2016-02-05_12:55:40 on domain   4:     .23137 elapsed seconds
Timing for main: time 2016-02-05_12:56:00 on domain   4:     .22066 elapsed seconds
Timing for main: time 2016-02-05_12:56:00 on domain   2:    1.79009 elapsed seconds
Timing for main: time 2016-02-05_12:56:00 on domain   1:    5.77599 elapsed seconds
Timing for main: time 2016-02-05_12:56:13 on domain   3:     .20279 elapsed seconds
Timing for main: time 2016-02-05_12:56:26 on domain   3:     .18315 elapsed seconds
Timing for main: time 2016-02-05_12:56:40 on domain   3:     .18443 elapsed seconds
Timing for main: time 2016-02-05_12:56:20 on domain   4:     .23228 elapsed seconds
Timing for main: time 2016-02-05_12:56:40 on domain   4:     .22043 elapsed seconds
Timing for main: time 2016-02-05_12:56:40 on domain   2:    1.79125 elapsed seconds
Timing for main: time 2016-02-05_12:56:53 on domain   3:     .19553 elapsed seconds
Timing for main: time 2016-02-05_12:57:06 on domain   3:     .18358 elapsed seconds
Timing for main: time 2016-02-05_12:57:20 on domain   3:     .18236 elapsed seconds
Timing for main: time 2016-02-05_12:57:00 on domain   4:     .23165 elapsed seconds
Timing for main: time 2016-02-05_12:57:20 on domain   4:     .22041 elapsed seconds
Timing for main: time 2016-02-05_12:57:20 on domain   2:    1.78868 elapsed seconds
Timing for main: time 2016-02-05_12:57:33 on domain   3:     .19587 elapsed seconds
Timing for main: time 2016-02-05_12:57:46 on domain   3:     .18455 elapsed seconds
Timing for main: time 2016-02-05_12:58:00 on domain   3:     .18243 elapsed seconds
Timing for main: time 2016-02-05_12:57:40 on domain   4:     .23094 elapsed seconds
Timing for main: time 2016-02-05_12:58:00 on domain   4:     .22047 elapsed seconds
Timing for main: time 2016-02-05_12:58:00 on domain   2:    1.78820 elapsed seconds
Timing for main: time 2016-02-05_12:58:00 on domain   1:    5.76821 elapsed seconds
  photolysis_driver: called for domain  1
Timing for main: time 2016-02-05_12:58:13 on domain   3:     .20072 elapsed seconds
Timing for main: time 2016-02-05_12:58:26 on domain   3:     .18401 elapsed seconds
Timing for main: time 2016-02-05_12:58:40 on domain   3:     .18401 elapsed seconds
Timing for main: time 2016-02-05_12:58:20 on domain   4:     .23134 elapsed seconds
Timing for main: time 2016-02-05_12:58:40 on domain   4:     .22075 elapsed seconds
Timing for main: time 2016-02-05_12:58:40 on domain   2:    1.79937 elapsed seconds
Timing for main: time 2016-02-05_12:58:53 on domain   3:     .19671 elapsed seconds
Timing for main: time 2016-02-05_12:59:06 on domain   3:     .18456 elapsed seconds
Timing for main: time 2016-02-05_12:59:20 on domain   3:     .18410 elapsed seconds
Timing for main: time 2016-02-05_12:59:00 on domain   4:     .23155 elapsed seconds
Timing for main: time 2016-02-05_12:59:20 on domain   4:     .21961 elapsed seconds
Timing for main: time 2016-02-05_12:59:20 on domain   2:    1.79010 elapsed seconds
  photolysis_driver: called for domain  2
Timing for main: time 2016-02-05_12:59:33 on domain   3:     .19611 elapsed seconds
Timing for main: time 2016-02-05_12:59:46 on domain   3:     .18372 elapsed seconds
  photolysis_driver: called for domain  3
Timing for main: time 2016-02-05_13:00:00 on domain   3:     .87032 elapsed seconds
Timing for main: time 2016-02-05_12:59:40 on domain   4:     .23109 elapsed seconds
  photolysis_driver: called for domain  4
Timing for main: time 2016-02-05_13:00:00 on domain   4:    1.06551 elapsed seconds
Timing for main: time 2016-02-05_13:00:00 on domain   2:    4.20251 elapsed seconds
Timing for main: time 2016-02-05_13:00:00 on domain   1:    8.71579 elapsed seconds
Timing for Writing wrfout_d01_2016-02-05_13:00:00 for domain        1:    2.28835 elapsed seconds
  HOURLY EMISSIONS UPDATE TIME     3600.0        .0
 mediation_integrate: med_read_wrf_chem_emissions: Read emissions for time 2016-02-05_13:00:00
 **WARNING** Time in input file not being checked **WARNING**
Timing for Writing wrfout_d02_2016-02-05_13:00:00 for domain        2:    3.15690 elapsed seconds
Timing for Writing wrfout_d03_2016-02-05_13:00:00 for domain        3:    2.82784 elapsed seconds
Timing for main: time 2016-02-05_13:00:13 on domain   3:    3.24886 elapsed seconds
Timing for main: time 2016-02-05_13:00:26 on domain   3:     .18416 elapsed seconds
Timing for main: time 2016-02-05_13:00:40 on domain   3:     .18423 elapsed seconds
Timing for Writing wrfout_d04_2016-02-05_13:00:00 for domain        4:    3.07809 elapsed seconds
Timing for main: time 2016-02-05_13:00:20 on domain   4:    3.58123 elapsed seconds
Timing for main: time 2016-02-05_13:00:40 on domain   4:     .21993 elapsed seconds
Timing for main: time 2016-02-05_13:00:40 on domain   2:   11.64035 elapsed seconds
Timing for main: time 2016-02-05_13:00:53 on domain   3:     .19652 elapsed seconds
Timing for main: time 2016-02-05_13:01:06 on domain   3:     .18255 elapsed seconds
Timing for main: time 2016-02-05_13:01:20 on domain   3:     .19338 elapsed seconds
Timing for main: time 2016-02-05_13:01:00 on domain   4:     .23069 elapsed seconds
Timing for main: time 2016-02-05_13:01:20 on domain   4:     .22011 elapsed seconds
Timing for main: time 2016-02-05_13:01:20 on domain   2:    1.79780 elapsed seconds
Timing for main: time 2016-02-05_13:01:33 on domain   3:     .19620 elapsed seconds
Timing for main: time 2016-02-05_13:01:46 on domain   3:     .18487 elapsed seconds
Timing for main: time 2016-02-05_13:02:00 on domain   3:     .18392 elapsed seconds
Timing for main: time 2016-02-05_13:01:40 on domain   4:     .23297 elapsed seconds
Timing for main: time 2016-02-05_13:02:00 on domain   4:     .21948 elapsed seconds
Timing for main: time 2016-02-05_13:02:00 on domain   2:    1.79208 elapsed seconds
Timing for main: time 2016-02-05_13:02:00 on domain   1:   18.46452 elapsed seconds
Timing for main: time 2016-02-05_13:02:13 on domain   3:     .19664 elapsed seconds
Timing for main: time 2016-02-05_13:02:26 on domain   3:     .18750 elapsed seconds
Timing for main: time 2016-02-05_13:02:40 on domain   3:     .18356 elapsed seconds
Timing for main: time 2016-02-05_13:02:20 on domain   4:     .23174 elapsed seconds
Timing for main: time 2016-02-05_13:02:40 on domain   4:     .21979 elapsed seconds
Timing for main: time 2016-02-05_13:02:40 on domain   2:    1.78957 elapsed seconds
Timing for main: time 2016-02-05_13:02:53 on domain   3:     .21557 elapsed seconds
Timing for main: time 2016-02-05_13:03:06 on domain   3:     .22921 elapsed seconds
Timing for main: time 2016-02-05_13:03:20 on domain   3:     .18416 elapsed seconds
Timing for main: time 2016-02-05_13:03:00 on domain   4:     .23144 elapsed seconds
Timing for main: time 2016-02-05_13:03:20 on domain   4:     .21971 elapsed seconds
Timing for main: time 2016-02-05_13:03:20 on domain   2:    1.92328 elapsed seconds
Timing for main: time 2016-02-05_13:03:33 on domain   3:     .22287 elapsed seconds
Timing for main: time 2016-02-05_13:03:46 on domain   3:     .23158 elapsed seconds
Timing for main: time 2016-02-05_13:04:00 on domain   3:     .18421 elapsed seconds
Timing for main: time 2016-02-05_13:03:40 on domain   4:     .23152 elapsed seconds
Timing for main: time 2016-02-05_13:04:00 on domain   4:     .22076 elapsed seconds
Timing for main: time 2016-02-05_13:04:00 on domain   2:    1.87434 elapsed seconds
Timing for main: time 2016-02-05_13:04:00 on domain   1:    5.98783 elapsed seconds
Timing for main: time 2016-02-05_13:04:13 on domain   3:     .19688 elapsed seconds
Timing for main: time 2016-02-05_13:04:26 on domain   3:     .18539 elapsed seconds
Timing for main: time 2016-02-05_13:04:40 on domain   3:     .18491 elapsed seconds
Timing for main: time 2016-02-05_13:04:20 on domain   4:     .23408 elapsed seconds
Timing for main: time 2016-02-05_13:04:40 on domain   4:     .22226 elapsed seconds
Timing for main: time 2016-02-05_13:04:40 on domain   2:    1.79156 elapsed seconds
Timing for main: time 2016-02-05_13:04:53 on domain   3:     .19728 elapsed seconds
Timing for main: time 2016-02-05_13:05:06 on domain   3:     .18372 elapsed seconds
Timing for main: time 2016-02-05_13:05:20 on domain   3:     .18481 elapsed seconds
Timing for main: time 2016-02-05_13:05:00 on domain   4:     .24098 elapsed seconds
Timing for main: time 2016-02-05_13:05:20 on domain   4:     .25879 elapsed seconds
Timing for main: time 2016-02-05_13:05:20 on domain   2:    1.83926 elapsed seconds
Timing for main: time 2016-02-05_13:05:33 on domain   3:     .19730 elapsed seconds
Timing for main: time 2016-02-05_13:05:46 on domain   3:     .18725 elapsed seconds
Timing for main: time 2016-02-05_13:06:00 on domain   3:     .18597 elapsed seconds
Timing for main: time 2016-02-05_13:05:40 on domain   4:     .23019 elapsed seconds
Timing for main: time 2016-02-05_13:06:00 on domain   4:     .22060 elapsed seconds
Timing for main: time 2016-02-05_13:06:00 on domain   2:    1.85775 elapsed seconds
Timing for main: time 2016-02-05_13:06:00 on domain   1:    5.89606 elapsed seconds
Timing for main: time 2016-02-05_13:06:13 on domain   3:     .20161 elapsed seconds
Timing for main: time 2016-02-05_13:06:26 on domain   3:     .19178 elapsed seconds
Timing for main: time 2016-02-05_13:06:40 on domain   3:     .18441 elapsed seconds
Timing for main: time 2016-02-05_13:06:20 on domain   4:     .23081 elapsed seconds
Timing for main: time 2016-02-05_13:06:40 on domain   4:     .22001 elapsed seconds
Timing for main: time 2016-02-05_13:06:40 on domain   2:    1.79714 elapsed seconds
Timing for main: time 2016-02-05_13:06:53 on domain   3:     .19614 elapsed seconds
Timing for main: time 2016-02-05_13:07:06 on domain   3:     .18505 elapsed seconds
Timing for main: time 2016-02-05_13:07:20 on domain   3:     .18502 elapsed seconds
Timing for main: time 2016-02-05_13:07:00 on domain   4:     .23097 elapsed seconds
Timing for main: time 2016-02-05_13:07:20 on domain   4:     .22105 elapsed seconds
Timing for main: time 2016-02-05_13:07:20 on domain   2:    1.79236 elapsed seconds
Timing for main: time 2016-02-05_13:07:33 on domain   3:     .19877 elapsed seconds
Timing for main: time 2016-02-05_13:07:46 on domain   3:     .19886 elapsed seconds
Timing for main: time 2016-02-05_13:08:00 on domain   3:     .26638 elapsed seconds
Timing for main: time 2016-02-05_13:07:40 on domain   4:     .23111 elapsed seconds
Timing for main: time 2016-02-05_13:08:00 on domain   4:     .22129 elapsed seconds
Timing for main: time 2016-02-05_13:08:00 on domain   2:    1.92470 elapsed seconds
Timing for main: time 2016-02-05_13:08:00 on domain   1:    5.91589 elapsed seconds
Timing for main: time 2016-02-05_13:08:13 on domain   3:     .20288 elapsed seconds
Timing for main: time 2016-02-05_13:08:26 on domain   3:     .18460 elapsed seconds
Timing for main: time 2016-02-05_13:08:40 on domain   3:     .18406 elapsed seconds
Timing for main: time 2016-02-05_13:08:20 on domain   4:     .23084 elapsed seconds
Timing for main: time 2016-02-05_13:08:40 on domain   4:     .23301 elapsed seconds
Timing for main: time 2016-02-05_13:08:40 on domain   2:    1.80312 elapsed seconds
Timing for main: time 2016-02-05_13:08:53 on domain   3:     .20493 elapsed seconds
Timing for main: time 2016-02-05_13:09:06 on domain   3:     .18760 elapsed seconds
Timing for main: time 2016-02-05_13:09:20 on domain   3:     .18512 elapsed seconds
Timing for main: time 2016-02-05_13:09:00 on domain   4:     .23163 elapsed seconds
Timing for main: time 2016-02-05_13:09:20 on domain   4:     .21944 elapsed seconds
Timing for main: time 2016-02-05_13:09:20 on domain   2:    1.87849 elapsed seconds
Timing for main: time 2016-02-05_13:09:33 on domain   3:     .19752 elapsed seconds
Timing for main: time 2016-02-05_13:09:46 on domain   3:     .18500 elapsed seconds
Timing for main: time 2016-02-05_13:10:00 on domain   3:     .18534 elapsed seconds
Timing for main: time 2016-02-05_13:09:40 on domain   4:     .23063 elapsed seconds
Timing for main: time 2016-02-05_13:10:00 on domain   4:     .22916 elapsed seconds
Timing for main: time 2016-02-05_13:10:00 on domain   2:    1.85478 elapsed seconds
Timing for main: time 2016-02-05_13:10:00 on domain   1:    5.93537 elapsed seconds
Timing for main: time 2016-02-05_13:10:13 on domain   3:     .19695 elapsed seconds
Timing for main: time 2016-02-05_13:10:26 on domain   3:     .18794 elapsed seconds
Timing for main: time 2016-02-05_13:10:40 on domain   3:     .18574 elapsed seconds
Timing for main: time 2016-02-05_13:10:20 on domain   4:     .23144 elapsed seconds
Timing for main: time 2016-02-05_13:10:40 on domain   4:     .22020 elapsed seconds
Timing for main: time 2016-02-05_13:10:40 on domain   2:    1.78971 elapsed seconds
Timing for main: time 2016-02-05_13:10:53 on domain   3:     .19556 elapsed seconds
Timing for main: time 2016-02-05_13:11:06 on domain   3:     .18629 elapsed seconds
Timing for main: time 2016-02-05_13:11:20 on domain   3:     .18460 elapsed seconds
Timing for main: time 2016-02-05_13:11:00 on domain   4:     .23181 elapsed seconds
Timing for main: time 2016-02-05_13:11:20 on domain   4:     .21974 elapsed seconds
Timing for main: time 2016-02-05_13:11:20 on domain   2:    1.78995 elapsed seconds
Timing for main: time 2016-02-05_13:11:33 on domain   3:     .20382 elapsed seconds
Timing for main: time 2016-02-05_13:11:46 on domain   3:     .18514 elapsed seconds
Timing for main: time 2016-02-05_13:12:00 on domain   3:     .18416 elapsed seconds
Timing for main: time 2016-02-05_13:11:40 on domain   4:     .23209 elapsed seconds
Timing for main: time 2016-02-05_13:12:00 on domain   4:     .22003 elapsed seconds
Timing for main: time 2016-02-05_13:12:00 on domain   2:    1.79807 elapsed seconds
Timing for main: time 2016-02-05_13:12:00 on domain   1:    5.78330 elapsed seconds
Timing for main: time 2016-02-05_13:12:13 on domain   3:     .19636 elapsed seconds
Timing for main: time 2016-02-05_13:12:26 on domain   3:     .18437 elapsed seconds
Timing for main: time 2016-02-05_13:12:40 on domain   3:     .18538 elapsed seconds
Timing for main: time 2016-02-05_13:12:20 on domain   4:     .23141 elapsed seconds
Timing for main: time 2016-02-05_13:12:40 on domain   4:     .21980 elapsed seconds
Timing for main: time 2016-02-05_13:12:40 on domain   2:    1.78476 elapsed seconds
Timing for main: time 2016-02-05_13:12:53 on domain   3:     .19680 elapsed seconds
Timing for main: time 2016-02-05_13:13:06 on domain   3:     .18427 elapsed seconds
Timing for main: time 2016-02-05_13:13:20 on domain   3:     .18421 elapsed seconds
Timing for main: time 2016-02-05_13:13:00 on domain   4:     .23102 elapsed seconds
Timing for main: time 2016-02-05_13:13:20 on domain   4:     .21984 elapsed seconds
Timing for main: time 2016-02-05_13:13:20 on domain   2:    1.79224 elapsed seconds
Timing for main: time 2016-02-05_13:13:33 on domain   3:     .21135 elapsed seconds
Timing for main: time 2016-02-05_13:13:46 on domain   3:     .18382 elapsed seconds
Timing for main: time 2016-02-05_13:14:00 on domain   3:     .18484 elapsed seconds
Timing for main: time 2016-02-05_13:13:40 on domain   4:     .23170 elapsed seconds
Timing for main: time 2016-02-05_13:14:00 on domain   4:     .21936 elapsed seconds
Timing for main: time 2016-02-05_13:14:00 on domain   2:    1.83379 elapsed seconds
Timing for main: time 2016-02-05_13:14:00 on domain   1:    5.81045 elapsed seconds
Timing for main: time 2016-02-05_13:14:13 on domain   3:     .19753 elapsed seconds
Timing for main: time 2016-02-05_13:14:26 on domain   3:     .18349 elapsed seconds
Timing for main: time 2016-02-05_13:14:40 on domain   3:     .18483 elapsed seconds
Timing for main: time 2016-02-05_13:14:20 on domain   4:     .23065 elapsed seconds
Timing for main: time 2016-02-05_13:14:40 on domain   4:     .22033 elapsed seconds
Timing for main: time 2016-02-05_13:14:40 on domain   2:    1.79593 elapsed seconds
Timing for main: time 2016-02-05_13:14:53 on domain   3:     .19716 elapsed seconds
Timing for main: time 2016-02-05_13:15:06 on domain   3:     .20581 elapsed seconds
Timing for main: time 2016-02-05_13:15:20 on domain   3:     .22457 elapsed seconds
Timing for main: time 2016-02-05_13:15:00 on domain   4:     .23910 elapsed seconds
Timing for main: time 2016-02-05_13:15:20 on domain   4:     .22047 elapsed seconds
Timing for main: time 2016-02-05_13:15:20 on domain   2:    1.86822 elapsed seconds
Timing for main: time 2016-02-05_13:15:33 on domain   3:     .19558 elapsed seconds
Timing for main: time 2016-02-05_13:15:46 on domain   3:     .18714 elapsed seconds
Timing for main: time 2016-02-05_13:16:00 on domain   3:     .18360 elapsed seconds
Timing for main: time 2016-02-05_13:15:40 on domain   4:     .23160 elapsed seconds
Timing for main: time 2016-02-05_13:16:00 on domain   4:     .21979 elapsed seconds
Timing for main: time 2016-02-05_13:16:00 on domain   2:    1.79122 elapsed seconds
Timing for main: time 2016-02-05_13:16:00 on domain   1:    5.85460 elapsed seconds
Timing for main: time 2016-02-05_13:16:13 on domain   3:     .19618 elapsed seconds
Timing for main: time 2016-02-05_13:16:26 on domain   3:     .18497 elapsed seconds
Timing for main: time 2016-02-05_13:16:40 on domain   3:     .19114 elapsed seconds
Timing for main: time 2016-02-05_13:16:20 on domain   4:     .23157 elapsed seconds
Timing for main: time 2016-02-05_13:16:40 on domain   4:     .22013 elapsed seconds
Timing for main: time 2016-02-05_13:16:40 on domain   2:    1.79327 elapsed seconds
Timing for main: time 2016-02-05_13:16:53 on domain   3:     .19738 elapsed seconds
Timing for main: time 2016-02-05_13:17:06 on domain   3:     .18438 elapsed seconds
Timing for main: time 2016-02-05_13:17:20 on domain   3:     .18335 elapsed seconds
Timing for main: time 2016-02-05_13:17:00 on domain   4:     .23131 elapsed seconds
Timing for main: time 2016-02-05_13:17:20 on domain   4:     .22009 elapsed seconds
Timing for main: time 2016-02-05_13:17:20 on domain   2:    1.78993 elapsed seconds
Timing for main: time 2016-02-05_13:17:33 on domain   3:     .19712 elapsed seconds
[...]
Timing for main: time 2016-02-05_17:36:00 on domain   2:    1.97098 elapsed seconds
Timing for main: time 2016-02-05_17:36:00 on domain   1:    5.96473 elapsed seconds
Timing for main: time 2016-02-05_17:36:13 on domain   3:     .19568 elapsed seconds
Timing for main: time 2016-02-05_17:36:26 on domain   3:     .18406 elapsed seconds
Timing for main: time 2016-02-05_17:36:40 on domain   3:     .18432 elapsed seconds
Timing for main: time 2016-02-05_17:36:20 on domain   4:     .23675 elapsed seconds
Timing for main: time 2016-02-05_17:36:40 on domain   4:     .21928 elapsed seconds
Timing for main: time 2016-02-05_17:36:40 on domain   2:    1.79152 elapsed seconds
Timing for main: time 2016-02-05_17:36:53 on domain   3:     .19652 elapsed seconds
Timing for main: time 2016-02-05_17:37:06 on domain   3:     .18374 elapsed seconds
Timing for main: time 2016-02-05_17:37:20 on domain   3:     .19085 elapsed seconds
Timing for main: time 2016-02-05_17:37:00 on domain   4:     .23128 elapsed seconds
Timing for main: time 2016-02-05_17:37:20 on domain   4:     .21971 elapsed seconds
Timing for main: time 2016-02-05_17:37:20 on domain   2:    1.79938 elapsed seconds
Timing for main: time 2016-02-05_17:37:33 on domain   3:     .19695 elapsed seconds
Timing for main: time 2016-02-05_17:37:46 on domain   3:     .18360 elapsed seconds
Timing for main: time 2016-02-05_17:38:00 on domain   3:     .18422 elapsed seconds
Timing for main: time 2016-02-05_17:37:40 on domain   4:     .23088 elapsed seconds
Timing for main: time 2016-02-05_17:38:00 on domain   4:     .22095 elapsed seconds
Timing for main: time 2016-02-05_17:38:00 on domain   2:    1.79738 elapsed seconds
Timing for main: time 2016-02-05_17:38:00 on domain   1:    5.78464 elapsed seconds
Timing for main: time 2016-02-05_17:38:13 on domain   3:     .19637 elapsed seconds
Timing for main: time 2016-02-05_17:38:26 on domain   3:     .18461 elapsed seconds
Timing for main: time 2016-02-05_17:38:40 on domain   3:     .18391 elapsed seconds
Timing for main: time 2016-02-05_17:38:20 on domain   4:     .22893 elapsed seconds
Timing for main: time 2016-02-05_17:38:40 on domain   4:     .22343 elapsed seconds
Timing for main: time 2016-02-05_17:38:40 on domain   2:    1.78853 elapsed seconds
Timing for main: time 2016-02-05_17:38:53 on domain   3:     .19631 elapsed seconds
Timing for main: time 2016-02-05_17:39:06 on domain   3:     .18422 elapsed seconds
Timing for main: time 2016-02-05_17:39:20 on domain   3:     .18463 elapsed seconds
Timing for main: time 2016-02-05_17:39:00 on domain   4:     .23217 elapsed seconds
Timing for main: time 2016-02-05_17:39:20 on domain   4:     .22119 elapsed seconds
Timing for main: time 2016-02-05_17:39:20 on domain   2:    1.79400 elapsed seconds
Timing for main: time 2016-02-05_17:39:33 on domain   3:     .20065 elapsed seconds
Timing for main: time 2016-02-05_17:39:46 on domain   3:     .18418 elapsed seconds
Timing for main: time 2016-02-05_17:40:00 on domain   3:     .18392 elapsed seconds
Timing for main: time 2016-02-05_17:39:40 on domain   4:     .23019 elapsed seconds
Timing for main: time 2016-02-05_17:40:00 on domain   4:     .27041 elapsed seconds
Timing for main: time 2016-02-05_17:40:00 on domain   2:    1.84734 elapsed seconds
Timing for main: time 2016-02-05_17:40:00 on domain   1:    5.82677 elapsed seconds
Timing for main: time 2016-02-05_17:40:13 on domain   3:     .19591 elapsed seconds
Timing for main: time 2016-02-05_17:40:26 on domain   3:     .18440 elapsed seconds
Timing for main: time 2016-02-05_17:40:40 on domain   3:     .18365 elapsed seconds
Timing for main: time 2016-02-05_17:40:20 on domain   4:     .22952 elapsed seconds
Timing for main: time 2016-02-05_17:40:40 on domain   4:     .22469 elapsed seconds
Timing for main: time 2016-02-05_17:40:40 on domain   2:    1.79150 elapsed seconds
Timing for main: time 2016-02-05_17:40:53 on domain   3:     .19583 elapsed seconds
Timing for main: time 2016-02-05_17:41:06 on domain   3:     .18389 elapsed seconds
Timing for main: time 2016-02-05_17:41:20 on domain   3:     .18513 elapsed seconds
Timing for main: time 2016-02-05_17:41:00 on domain   4:     .23416 elapsed seconds
Timing for main: time 2016-02-05_17:41:20 on domain   4:     .21755 elapsed seconds
Timing for main: time 2016-02-05_17:41:20 on domain   2:    1.80225 elapsed seconds
Timing for main: time 2016-02-05_17:41:33 on domain   3:     .19539 elapsed seconds
Timing for main: time 2016-02-05_17:41:46 on domain   3:     .18403 elapsed seconds
Timing for main: time 2016-02-05_17:42:00 on domain   3:     .18430 elapsed seconds
Timing for main: time 2016-02-05_17:41:40 on domain   4:     .23076 elapsed seconds
Timing for main: time 2016-02-05_17:42:00 on domain   4:     .22027 elapsed seconds
Timing for main: time 2016-02-05_17:42:00 on domain   2:    1.80540 elapsed seconds
Timing for main: time 2016-02-05_17:42:00 on domain   1:    5.87158 elapsed seconds
Timing for main: time 2016-02-05_17:42:13 on domain   3:     .19599 elapsed seconds
Timing for main: time 2016-02-05_17:42:26 on domain   3:     .19206 elapsed seconds
Timing for main: time 2016-02-05_17:42:40 on domain   3:     .18654 elapsed seconds
Timing for main: time 2016-02-05_17:42:20 on domain   4:     .23056 elapsed seconds
Timing for main: time 2016-02-05_17:42:40 on domain   4:     .22449 elapsed seconds
Timing for main: time 2016-02-05_17:42:40 on domain   2:    1.80700 elapsed seconds
Timing for main: time 2016-02-05_17:42:53 on domain   3:     .19408 elapsed seconds
Timing for main: time 2016-02-05_17:43:06 on domain   3:     .18448 elapsed seconds
Timing for main: time 2016-02-05_17:43:20 on domain   3:     .18470 elapsed seconds
Timing for main: time 2016-02-05_17:43:00 on domain   4:     .22975 elapsed seconds
Timing for main: time 2016-02-05_17:43:20 on domain   4:     .22080 elapsed seconds
Timing for main: time 2016-02-05_17:43:20 on domain   2:    1.79116 elapsed seconds
Timing for main: time 2016-02-05_17:43:33 on domain   3:     .19539 elapsed seconds
Timing for main: time 2016-02-05_17:43:46 on domain   3:     .18575 elapsed seconds
Timing for main: time 2016-02-05_17:44:00 on domain   3:     .18439 elapsed seconds
Timing for main: time 2016-02-05_17:43:40 on domain   4:     .23186 elapsed seconds
Timing for main: time 2016-02-05_17:44:00 on domain   4:     .21893 elapsed seconds
Timing for main: time 2016-02-05_17:44:00 on domain   2:    1.79214 elapsed seconds
Timing for main: time 2016-02-05_17:44:00 on domain   1:    5.78653 elapsed seconds
Timing for main: time 2016-02-05_17:44:13 on domain   3:     .19566 elapsed seconds
Timing for main: time 2016-02-05_17:44:26 on domain   3:     .18466 elapsed seconds
Timing for main: time 2016-02-05_17:44:40 on domain   3:     .18426 elapsed seconds
Timing for main: time 2016-02-05_17:44:20 on domain   4:     .23064 elapsed seconds
Timing for main: time 2016-02-05_17:44:40 on domain   4:     .22054 elapsed seconds
Timing for main: time 2016-02-05_17:44:40 on domain   2:    1.78755 elapsed seconds
Timing for main: time 2016-02-05_17:44:53 on domain   3:     .19588 elapsed seconds
Timing for main: time 2016-02-05_17:45:06 on domain   3:     .18519 elapsed seconds
Timing for main: time 2016-02-05_17:45:20 on domain   3:     .18511 elapsed seconds
Timing for main: time 2016-02-05_17:45:00 on domain   4:     .24140 elapsed seconds
Timing for main: time 2016-02-05_17:45:20 on domain   4:     .21935 elapsed seconds
Timing for main: time 2016-02-05_17:45:20 on domain   2:    1.80310 elapsed seconds
Timing for main: time 2016-02-05_17:45:33 on domain   3:     .19683 elapsed seconds
Timing for main: time 2016-02-05_17:45:46 on domain   3:     .23439 elapsed seconds
Timing for main: time 2016-02-05_17:46:00 on domain   3:     .23252 elapsed seconds
Timing for main: time 2016-02-05_17:45:40 on domain   4:     .23042 elapsed seconds
Timing for main: time 2016-02-05_17:46:00 on domain   4:     .22127 elapsed seconds
Timing for main: time 2016-02-05_17:46:00 on domain   2:    1.90285 elapsed seconds
Timing for main: time 2016-02-05_17:46:00 on domain   1:    5.88991 elapsed seconds
Timing for main: time 2016-02-05_17:46:13 on domain   3:     .19757 elapsed seconds
Timing for main: time 2016-02-05_17:46:26 on domain   3:     .18491 elapsed seconds
Timing for main: time 2016-02-05_17:46:40 on domain   3:     .18416 elapsed seconds
Timing for main: time 2016-02-05_17:46:20 on domain   4:     .23113 elapsed seconds
Timing for main: time 2016-02-05_17:46:40 on domain   4:     .22113 elapsed seconds
Timing for main: time 2016-02-05_17:46:40 on domain   2:    1.79877 elapsed seconds
Timing for main: time 2016-02-05_17:46:53 on domain   3:     .19789 elapsed seconds
Timing for main: time 2016-02-05_17:47:06 on domain   3:     .18465 elapsed seconds
Timing for main: time 2016-02-05_17:47:20 on domain   3:     .18435 elapsed seconds
Timing for main: time 2016-02-05_17:47:00 on domain   4:     .23120 elapsed seconds
Timing for main: time 2016-02-05_17:47:20 on domain   4:     .24300 elapsed seconds
Timing for main: time 2016-02-05_17:47:20 on domain   2:    1.81863 elapsed seconds
Timing for main: time 2016-02-05_17:47:33 on domain   3:     .20516 elapsed seconds
Timing for main: time 2016-02-05_17:47:46 on domain   3:     .18622 elapsed seconds
Timing for main: time 2016-02-05_17:48:00 on domain   3:     .18518 elapsed seconds
Timing for main: time 2016-02-05_17:47:40 on domain   4:     .23044 elapsed seconds
Timing for main: time 2016-02-05_17:48:00 on domain   4:     .22139 elapsed seconds
Timing for main: time 2016-02-05_17:48:00 on domain   2:    1.85190 elapsed seconds
Timing for main: time 2016-02-05_17:48:00 on domain   1:    5.87657 elapsed seconds
Timing for main: time 2016-02-05_17:48:13 on domain   3:     .19708 elapsed seconds
Timing for main: time 2016-02-05_17:48:26 on domain   3:     .18455 elapsed seconds
Timing for main: time 2016-02-05_17:48:40 on domain   3:     .18476 elapsed seconds
Timing for main: time 2016-02-05_17:48:20 on domain   4:     .23191 elapsed seconds
Timing for main: time 2016-02-05_17:48:40 on domain   4:     .21939 elapsed seconds
Timing for main: time 2016-02-05_17:48:40 on domain   2:    1.79325 elapsed seconds
Timing for main: time 2016-02-05_17:48:53 on domain   3:     .19728 elapsed seconds
Timing for main: time 2016-02-05_17:49:06 on domain   3:     .18411 elapsed seconds
Timing for main: time 2016-02-05_17:49:20 on domain   3:     .18435 elapsed seconds
Timing for main: time 2016-02-05_17:49:00 on domain   4:     .23260 elapsed seconds
Timing for main: time 2016-02-05_17:49:20 on domain   4:     .22022 elapsed seconds
Timing for main: time 2016-02-05_17:49:20 on domain   2:    1.79529 elapsed seconds
Timing for main: time 2016-02-05_17:49:33 on domain   3:     .19718 elapsed seconds
Timing for main: time 2016-02-05_17:49:46 on domain   3:     .18428 elapsed seconds
Timing for main: time 2016-02-05_17:50:00 on domain   3:     .18444 elapsed seconds
Timing for main: time 2016-02-05_17:49:40 on domain   4:     .23201 elapsed seconds
Timing for main: time 2016-02-05_17:50:00 on domain   4:     .22934 elapsed seconds
Timing for main: time 2016-02-05_17:50:00 on domain   2:    1.80432 elapsed seconds
Timing for main: time 2016-02-05_17:50:00 on domain   1:    5.86724 elapsed seconds
Timing for main: time 2016-02-05_17:50:13 on domain   3:     .19722 elapsed seconds
Timing for main: time 2016-02-05_17:50:26 on domain   3:     .18406 elapsed seconds
Timing for main: time 2016-02-05_17:50:40 on domain   3:     .18587 elapsed seconds
Timing for main: time 2016-02-05_17:50:20 on domain   4:     .23119 elapsed seconds
Timing for main: time 2016-02-05_17:50:40 on domain   4:     .22146 elapsed seconds
Timing for main: time 2016-02-05_17:50:40 on domain   2:    1.79217 elapsed seconds
Timing for main: time 2016-02-05_17:50:53 on domain   3:     .19694 elapsed seconds
Timing for main: time 2016-02-05_17:51:06 on domain   3:     .18599 elapsed seconds
Timing for main: time 2016-02-05_17:51:20 on domain   3:     .18447 elapsed seconds
Timing for main: time 2016-02-05_17:51:00 on domain   4:     .23140 elapsed seconds
Timing for main: time 2016-02-05_17:51:20 on domain   4:     .22287 elapsed seconds
Timing for main: time 2016-02-05_17:51:20 on domain   2:    1.79809 elapsed seconds
Timing for main: time 2016-02-05_17:51:33 on domain   3:     .21124 elapsed seconds
Timing for main: time 2016-02-05_17:51:46 on domain   3:     .21245 elapsed seconds
Timing for main: time 2016-02-05_17:52:00 on domain   3:     .20085 elapsed seconds
Timing for main: time 2016-02-05_17:51:40 on domain   4:     .23086 elapsed seconds
Timing for main: time 2016-02-05_17:52:00 on domain   4:     .21998 elapsed seconds
Timing for main: time 2016-02-05_17:52:00 on domain   2:    1.86435 elapsed seconds
Timing for main: time 2016-02-05_17:52:00 on domain   1:    5.85004 elapsed seconds
Timing for main: time 2016-02-05_17:52:13 on domain   3:     .20646 elapsed seconds
Timing for main: time 2016-02-05_17:52:26 on domain   3:     .18470 elapsed seconds
Timing for main: time 2016-02-05_17:52:40 on domain   3:     .20937 elapsed seconds
Timing for main: time 2016-02-05_17:52:20 on domain   4:     .23086 elapsed seconds
Timing for main: time 2016-02-05_17:52:40 on domain   4:     .22232 elapsed seconds
Timing for main: time 2016-02-05_17:52:40 on domain   2:    1.84688 elapsed seconds
Timing for main: time 2016-02-05_17:52:53 on domain   3:     .19703 elapsed seconds
Timing for main: time 2016-02-05_17:53:06 on domain   3:     .18772 elapsed seconds
Timing for main: time 2016-02-05_17:53:20 on domain   3:     .18511 elapsed seconds
Timing for main: time 2016-02-05_17:53:00 on domain   4:     .23060 elapsed seconds
Timing for main: time 2016-02-05_17:53:20 on domain   4:     .22082 elapsed seconds
Timing for main: time 2016-02-05_17:53:20 on domain   2:    1.79938 elapsed seconds
Timing for main: time 2016-02-05_17:53:33 on domain   3:     .19687 elapsed seconds
Timing for main: time 2016-02-05_17:53:46 on domain   3:     .18471 elapsed seconds
Timing for main: time 2016-02-05_17:54:00 on domain   3:     .18446 elapsed seconds
Timing for main: time 2016-02-05_17:53:40 on domain   4:     .23153 elapsed seconds
Timing for main: time 2016-02-05_17:54:00 on domain   4:     .22113 elapsed seconds
Timing for main: time 2016-02-05_17:54:00 on domain   2:    1.79826 elapsed seconds
Timing for main: time 2016-02-05_17:54:00 on domain   1:    5.84670 elapsed seconds
Timing for main: time 2016-02-05_17:54:13 on domain   3:     .19677 elapsed seconds
Timing for main: time 2016-02-05_17:54:26 on domain   3:     .18515 elapsed seconds
Timing for main: time 2016-02-05_17:54:40 on domain   3:     .18439 elapsed seconds
Timing for main: time 2016-02-05_17:54:20 on domain   4:     .23183 elapsed seconds
Timing for main: time 2016-02-05_17:54:40 on domain   4:     .21983 elapsed seconds
Timing for main: time 2016-02-05_17:54:40 on domain   2:    1.78970 elapsed seconds
Timing for main: time 2016-02-05_17:54:53 on domain   3:     .19697 elapsed seconds
Timing for main: time 2016-02-05_17:55:06 on domain   3:     .18531 elapsed seconds
Timing for main: time 2016-02-05_17:55:20 on domain   3:     .18477 elapsed seconds
Timing for main: time 2016-02-05_17:55:00 on domain   4:     .23966 elapsed seconds
Timing for main: time 2016-02-05_17:55:20 on domain   4:     .22064 elapsed seconds
Timing for main: time 2016-02-05_17:55:20 on domain   2:    1.80745 elapsed seconds
Timing for main: time 2016-02-05_17:55:33 on domain   3:     .19597 elapsed seconds
Timing for main: time 2016-02-05_17:55:46 on domain   3:     .18483 elapsed seconds
Timing for main: time 2016-02-05_17:56:00 on domain   3:     .20121 elapsed seconds
Timing for main: time 2016-02-05_17:55:40 on domain   4:     .23109 elapsed seconds
Timing for main: time 2016-02-05_17:56:00 on domain   4:     .22042 elapsed seconds
Timing for main: time 2016-02-05_17:56:00 on domain   2:    1.81255 elapsed seconds
Timing for main: time 2016-02-05_17:56:00 on domain   1:    5.80554 elapsed seconds
Timing for main: time 2016-02-05_17:56:13 on domain   3:     .21546 elapsed seconds
Timing for main: time 2016-02-05_17:56:26 on domain   3:     .18462 elapsed seconds
Timing for main: time 2016-02-05_17:56:40 on domain   3:     .18441 elapsed seconds
Timing for main: time 2016-02-05_17:56:20 on domain   4:     .23120 elapsed seconds
Timing for main: time 2016-02-05_17:56:40 on domain   4:     .22042 elapsed seconds
Timing for main: time 2016-02-05_17:56:40 on domain   2:    1.86169 elapsed seconds
Timing for main: time 2016-02-05_17:56:53 on domain   3:     .19698 elapsed seconds
Timing for main: time 2016-02-05_17:57:06 on domain   3:     .18478 elapsed seconds
Timing for main: time 2016-02-05_17:57:20 on domain   3:     .18493 elapsed seconds
Timing for main: time 2016-02-05_17:57:00 on domain   4:     .23173 elapsed seconds
Timing for main: time 2016-02-05_17:57:20 on domain   4:     .22129 elapsed seconds
Timing for main: time 2016-02-05_17:57:20 on domain   2:    1.80673 elapsed seconds
Timing for main: time 2016-02-05_17:57:33 on domain   3:     .19692 elapsed seconds
Timing for main: time 2016-02-05_17:57:46 on domain   3:     .19181 elapsed seconds
Timing for main: time 2016-02-05_17:58:00 on domain   3:     .18520 elapsed seconds
Timing for main: time 2016-02-05_17:57:40 on domain   4:     .25594 elapsed seconds
Timing for main: time 2016-02-05_17:58:00 on domain   4:     .25050 elapsed seconds
Timing for main: time 2016-02-05_17:58:00 on domain   2:    1.85764 elapsed seconds
Timing for main: time 2016-02-05_17:58:00 on domain   1:    5.94261 elapsed seconds
  photolysis_driver: called for domain  1
Timing for main: time 2016-02-05_17:58:13 on domain   3:     .19715 elapsed seconds
Timing for main: time 2016-02-05_17:58:26 on domain   3:     .18490 elapsed seconds
Timing for main: time 2016-02-05_17:58:40 on domain   3:     .18637 elapsed seconds
Timing for main: time 2016-02-05_17:58:20 on domain   4:     .23115 elapsed seconds
Timing for main: time 2016-02-05_17:58:40 on domain   4:     .22106 elapsed seconds
Timing for main: time 2016-02-05_17:58:40 on domain   2:    1.79320 elapsed seconds
Timing for main: time 2016-02-05_17:58:53 on domain   3:     .19681 elapsed seconds
Timing for main: time 2016-02-05_17:59:06 on domain   3:     .18932 elapsed seconds
Timing for main: time 2016-02-05_17:59:20 on domain   3:     .18480 elapsed seconds
Timing for main: time 2016-02-05_17:59:00 on domain   4:     .22993 elapsed seconds
Timing for main: time 2016-02-05_17:59:20 on domain   4:     .22072 elapsed seconds
Timing for main: time 2016-02-05_17:59:20 on domain   2:    1.80118 elapsed seconds
  photolysis_driver: called for domain  2
Timing for main: time 2016-02-05_17:59:33 on domain   3:     .19712 elapsed seconds
Timing for main: time 2016-02-05_17:59:46 on domain   3:     .18833 elapsed seconds
  photolysis_driver: called for domain  3
Timing for main: time 2016-02-05_18:00:00 on domain   3:     .86960 elapsed seconds
Timing for Writing wrfout_d03_2016-02-05_18:00:00 for domain        3:    2.79170 elapsed seconds
Timing for main: time 2016-02-05_17:59:40 on domain   4:     .23284 elapsed seconds
  photolysis_driver: called for domain  4
Timing for main: time 2016-02-05_18:00:00 on domain   4:    1.06390 elapsed seconds
Timing for Writing wrfout_d04_2016-02-05_18:00:00 for domain        4:    3.00704 elapsed seconds
Timing for main: time 2016-02-05_18:00:00 on domain   2:   10.00990 elapsed seconds
Timing for Writing wrfout_d02_2016-02-05_18:00:00 for domain        2:    3.36555 elapsed seconds
Timing for main: time 2016-02-05_18:00:00 on domain   1:   17.83483 elapsed seconds
Timing for Writing wrfout_d01_2016-02-05_18:00:00 for domain        1:    2.72710 elapsed seconds
 d01 2016-02-05_18:00:00 wrf: SUCCESS COMPLETE WRF
