taskid: 0 hostname: p10a51.pbm.ihost.com
  Ntasks in X  10 , ntasks in Y  10
 Setting blank km_opt entries to domain #1 values.
  --> The km_opt entry in the namelist.input is now max_domains.
 Setting blank diff_opt entries to domain #1 values.
  --> The diff_opt entry in the namelist.input is now max_domains.
 --- WARNING: traj_opt is zero, but num_traj is not zero; setting num_traj to zero.
 --- NOTE: hypsometric_opt is 2, setting adjust_heights = F
 --- NOTE: sst_update is 0, setting io_form_auxinput4 = 0 and auxinput4_interval = 0 for all domains
 --- NOTE: sst_update is 0, setting io_form_auxinput4 = 0 and auxinput4_interval = 0 for all domains
 --- NOTE: sst_update is 0, setting io_form_auxinput4 = 0 and auxinput4_interval = 0 for all domains
 --- NOTE: sst_update is 0, setting io_form_auxinput4 = 0 and auxinput4_interval = 0 for all domains
 --- NOTE: grid_fdda is 0 for domain      1, setting gfdda interval and ending time to 0 for that domain.
 --- NOTE: both grid_sfdda and pxlsm_soil_nudge are 0 for domain      1, setting sgfdda interval and ending time to 0 for that domain.
 --- NOTE: obs_nudge_opt is 0 for domain      1, setting obs nudging interval and ending time to 0 for that domain.
 --- NOTE: grid_fdda is 0 for domain      2, setting gfdda interval and ending time to 0 for that domain.
 --- NOTE: both grid_sfdda and pxlsm_soil_nudge are 0 for domain      2, setting sgfdda interval and ending time to 0 for that domain.
 --- NOTE: obs_nudge_opt is 0 for domain      2, setting obs nudging interval and ending time to 0 for that domain.
 --- NOTE: grid_fdda is 0 for domain      3, setting gfdda interval and ending time to 0 for that domain.
 --- NOTE: both grid_sfdda and pxlsm_soil_nudge are 0 for domain      3, setting sgfdda interval and ending time to 0 for that domain.
 --- NOTE: obs_nudge_opt is 0 for domain      3, setting obs nudging interval and ending time to 0 for that domain.
 --- NOTE: grid_fdda is 0 for domain      4, setting gfdda interval and ending time to 0 for that domain.
 --- NOTE: both grid_sfdda and pxlsm_soil_nudge are 0 for domain      4, setting sgfdda interval and ending time to 0 for that domain.
 --- NOTE: obs_nudge_opt is 0 for domain      4, setting obs nudging interval and ending time to 0 for that domain.
 bl_pbl_physics /= 4, implies mfshconv must be 0, resetting
 --- NOTE: num_soil_layers has been set to      4
 WRF V3.6 MODEL
  *************************************
  Parent domain
  ids,ide,jds,jde  1 271 1 181
  ims,ime,jms,jme  -4 34 -4 25
  ips,ipe,jps,jpe  1 27 1 18
  *************************************
 DYNAMICS OPTION: Eulerian Mass Coordinate
    alloc_space_field: domain  1 ,  117661256  bytes allocated
   med_initialdata_input: calling input_input
Timing for processing wrfinput file (stream 0) for domain        1:    4.48652 elapsed seconds
 INPUT LandUse = "USGS"
  LANDUSE TYPE = "USGS" FOUND 33  CATEGORIES 2  SEASONS WATER CATEGORY =  16  SNOW CATEGORY =  24
 INITIALIZE THREE Noah LSM RELATED TABLES
  LANDUSE TYPE = USGS FOUND 27  CATEGORIES
  INPUT SOIL TEXTURE CLASSIFICATION = STAS
  SOIL TEXTURE CLASSIFICATION = STAS FOUND 19  CATEGORIES
 *********************************************************************
 *             PROGRAM:WRF/CHEM V3.6 MODEL
 *                                                                   *
 *    PLEASE REPORT ANY BUGS TO WRF/CHEM HELP at                     *
 *                                                                   *
 *              wrfchemhelp.gsd@noaa.gov                             *
 *                                                                   *
 *********************************************************************
 WARNING: dust option 1 currently works only with the GOCART aerosol option.
 WARNING: sea salt option 1 currently works only with the GOCART aerosol option.
  *************************************
  Nesting domain
  ids,ide,jds,jde  1 361 1 253
  ims,ime,jms,jme  -4 48 -4 36
  ips,ipe,jps,jpe  1 36 1 26
  INTERMEDIATE domain
  ids,ide,jds,jde  74 199 47 136
  ims,ime,jms,jme  69 97 42 67
  ips,ipe,jps,jpe  72 87 45 57
  *************************************
 d01 2016-02-05_12:00:00  alloc_space_field: domain  2 ,  213545948  bytes allocated
 d01 2016-02-05_12:00:00  alloc_space_field: domain  2 ,  9497384  bytes allocated
 d01 2016-02-05_12:00:00 *** Initializing nest domain # 2 from an input file. ***
 d01 2016-02-05_12:00:00 med_initialdata_input: calling input_input
Timing for processing wrfinput file (stream 0) for domain        2:    6.91179 elapsed seconds
 INPUT LandUse = "USGS"
  LANDUSE TYPE = "USGS" FOUND 33  CATEGORIES 2  SEASONS WATER CATEGORY =  16  SNOW CATEGORY =  24
 INITIALIZE THREE Noah LSM RELATED TABLES
  LANDUSE TYPE = USGS FOUND 27  CATEGORIES
  INPUT SOIL TEXTURE CLASSIFICATION = STAS
  SOIL TEXTURE CLASSIFICATION = STAS FOUND 19  CATEGORIES
 *********************************************************************
 *             PROGRAM:WRF/CHEM V3.6 MODEL
 *                                                                   *
 *    PLEASE REPORT ANY BUGS TO WRF/CHEM HELP at                     *
 *                                                                   *
 *              wrfchemhelp.gsd@noaa.gov                             *
 *                                                                   *
 *********************************************************************
 WARNING: dust option 1 currently works only with the GOCART aerosol option.
 WARNING: sea salt option 1 currently works only with the GOCART aerosol option.
 INPUT LandUse = "USGS"
  LANDUSE TYPE = "USGS" FOUND 33  CATEGORIES 2  SEASONS WATER CATEGORY =  16  SNOW CATEGORY =  24
 INITIALIZE THREE Noah LSM RELATED TABLES
  LANDUSE TYPE = USGS FOUND 27  CATEGORIES
  INPUT SOIL TEXTURE CLASSIFICATION = STAS
  SOIL TEXTURE CLASSIFICATION = STAS FOUND 19  CATEGORIES
 *********************************************************************
 *             PROGRAM:WRF/CHEM V3.6 MODEL
 *                                                                   *
 *    PLEASE REPORT ANY BUGS TO WRF/CHEM HELP at                     *
 *                                                                   *
 *              wrfchemhelp.gsd@noaa.gov                             *
 *                                                                   *
 *********************************************************************
 WARNING: dust option 1 currently works only with the GOCART aerosol option.
 WARNING: sea salt option 1 currently works only with the GOCART aerosol option.
 INPUT LandUse = "USGS"
  LANDUSE TYPE = "USGS" FOUND 33  CATEGORIES 2  SEASONS WATER CATEGORY =  16  SNOW CATEGORY =  24
 INITIALIZE THREE Noah LSM RELATED TABLES
  LANDUSE TYPE = USGS FOUND 27  CATEGORIES
  INPUT SOIL TEXTURE CLASSIFICATION = STAS
  SOIL TEXTURE CLASSIFICATION = STAS FOUND 19  CATEGORIES
 *********************************************************************
 *             PROGRAM:WRF/CHEM V3.6 MODEL
 *                                                                   *
 *    PLEASE REPORT ANY BUGS TO WRF/CHEM HELP at                     *
 *                                                                   *
 *              wrfchemhelp.gsd@noaa.gov                             *
 *                                                                   *
 *********************************************************************
 WARNING: dust option 1 currently works only with the GOCART aerosol option.
 WARNING: sea salt option 1 currently works only with the GOCART aerosol option.
Timing for Writing wrfout_d01_2016-02-05_12:00:00 for domain        1:    1.27651 elapsed seconds
  mediation_integrate: med_read_wrf_chem_emissions: Open file wrfchemi_12z_d01
  HOURLY EMISSIONS UPDATE TIME         .0        .0
 mediation_integrate: med_read_wrf_chem_emissions: Read emissions for time 2016-02-05_12:00:00
 **WARNING** Time in input file not being checked **WARNING**
Timing for processing lateral boundary for domain        1:    2.95359 elapsed seconds
  Tile Strategy is not specified. Assuming 1D-Y
 WRF TILE   1 IS      1 IE     27 JS      1 JE     18
 WRF NUMBER OF TILES =   1
  photolysis_driver: called for domain  1
  *************************************
  Nesting domain
  ids,ide,jds,jde  1 307 1 241
  ims,ime,jms,jme  -4 42 -4 36
  ips,ipe,jps,jpe  1 31 1 24
  INTERMEDIATE domain
  ids,ide,jds,jde  124 231 35 120
  ims,ime,jms,jme  119 145 30 54
  ips,ipe,jps,jpe  122 135 33 44
  *************************************
 d02 2016-02-05_12:00:00  alloc_space_field: domain  3 ,  189959300  bytes allocated
 d02 2016-02-05_12:00:00  alloc_space_field: domain  3 ,  8502300  bytes allocated
 d02 2016-02-05_12:00:00 *** Initializing nest domain # 3 from an input file. ***
 d02 2016-02-05_12:00:00 med_initialdata_input: calling input_input
Timing for processing wrfinput file (stream 0) for domain        3:    5.84230 elapsed seconds
 INPUT LandUse = "USGS"
  LANDUSE TYPE = "USGS" FOUND 33  CATEGORIES 2  SEASONS WATER CATEGORY =  16  SNOW CATEGORY =  24
 INITIALIZE THREE Noah LSM RELATED TABLES
  LANDUSE TYPE = USGS FOUND 27  CATEGORIES
  INPUT SOIL TEXTURE CLASSIFICATION = STAS
  SOIL TEXTURE CLASSIFICATION = STAS FOUND 19  CATEGORIES
 *********************************************************************
 *             PROGRAM:WRF/CHEM V3.6 MODEL
 *                                                                   *
 *    PLEASE REPORT ANY BUGS TO WRF/CHEM HELP at                     *
 *                                                                   *
 *              wrfchemhelp.gsd@noaa.gov                             *
 *                                                                   *
 *********************************************************************
 WARNING: dust option 1 currently works only with the GOCART aerosol option.
 WARNING: sea salt option 1 currently works only with the GOCART aerosol option.
 INPUT LandUse = "USGS"
  LANDUSE TYPE = "USGS" FOUND 33  CATEGORIES 2  SEASONS WATER CATEGORY =  16  SNOW CATEGORY =  24
 INITIALIZE THREE Noah LSM RELATED TABLES
  LANDUSE TYPE = USGS FOUND 27  CATEGORIES
  INPUT SOIL TEXTURE CLASSIFICATION = STAS
  SOIL TEXTURE CLASSIFICATION = STAS FOUND 19  CATEGORIES
 *********************************************************************
 *             PROGRAM:WRF/CHEM V3.6 MODEL
 *                                                                   *
 *    PLEASE REPORT ANY BUGS TO WRF/CHEM HELP at                     *
 *                                                                   *
 *              wrfchemhelp.gsd@noaa.gov                             *
 *                                                                   *
 *********************************************************************
 WARNING: dust option 1 currently works only with the GOCART aerosol option.
 WARNING: sea salt option 1 currently works only with the GOCART aerosol option.
 INPUT LandUse = "USGS"
  LANDUSE TYPE = "USGS" FOUND 33  CATEGORIES 2  SEASONS WATER CATEGORY =  16  SNOW CATEGORY =  24
 INITIALIZE THREE Noah LSM RELATED TABLES
  LANDUSE TYPE = USGS FOUND 27  CATEGORIES
  INPUT SOIL TEXTURE CLASSIFICATION = STAS
  SOIL TEXTURE CLASSIFICATION = STAS FOUND 19  CATEGORIES
 *********************************************************************
 *             PROGRAM:WRF/CHEM V3.6 MODEL
 *                                                                   *
 *    PLEASE REPORT ANY BUGS TO WRF/CHEM HELP at                     *
 *                                                                   *
 *              wrfchemhelp.gsd@noaa.gov                             *
 *                                                                   *
 *********************************************************************
 WARNING: dust option 1 currently works only with the GOCART aerosol option.
 WARNING: sea salt option 1 currently works only with the GOCART aerosol option.
  *************************************
  Nesting domain
  ids,ide,jds,jde  1 217 1 388
  ims,ime,jms,jme  -4 33 -4 51
  ips,ipe,jps,jpe  1 22 1 39
  INTERMEDIATE domain
  ids,ide,jds,jde  225 302 83 217
  ims,ime,jms,jme  220 243 78 107
  ips,ipe,jps,jpe  223 233 81 97
  *************************************
 d02 2016-02-05_12:00:00  alloc_space_field: domain  4 ,  209313404  bytes allocated
 d02 2016-02-05_12:00:00 *** Initializing nest domain # 4 from an input file. ***
 d02 2016-02-05_12:00:00 med_initialdata_input: calling input_input
Timing for processing wrfinput file (stream 0) for domain        4:    6.94036 elapsed seconds
 INPUT LandUse = "USGS"
  LANDUSE TYPE = "USGS" FOUND 33  CATEGORIES 2  SEASONS WATER CATEGORY =  16  SNOW CATEGORY =  24
 INITIALIZE THREE Noah LSM RELATED TABLES
  LANDUSE TYPE = USGS FOUND 27  CATEGORIES
  INPUT SOIL TEXTURE CLASSIFICATION = STAS
  SOIL TEXTURE CLASSIFICATION = STAS FOUND 19  CATEGORIES
 *********************************************************************
 *             PROGRAM:WRF/CHEM V3.6 MODEL
 *                                                                   *
 *    PLEASE REPORT ANY BUGS TO WRF/CHEM HELP at                     *
 *                                                                   *
 *              wrfchemhelp.gsd@noaa.gov                             *
 *                                                                   *
 *********************************************************************
 WARNING: dust option 1 currently works only with the GOCART aerosol option.
 WARNING: sea salt option 1 currently works only with the GOCART aerosol option.
 INPUT LandUse = "USGS"
  LANDUSE TYPE = "USGS" FOUND 33  CATEGORIES 2  SEASONS WATER CATEGORY =  16  SNOW CATEGORY =  24
 INITIALIZE THREE Noah LSM RELATED TABLES
  LANDUSE TYPE = USGS FOUND 27  CATEGORIES
  INPUT SOIL TEXTURE CLASSIFICATION = STAS
  SOIL TEXTURE CLASSIFICATION = STAS FOUND 19  CATEGORIES
 *********************************************************************
 *             PROGRAM:WRF/CHEM V3.6 MODEL
 *                                                                   *
 *    PLEASE REPORT ANY BUGS TO WRF/CHEM HELP at                     *
 *                                                                   *
 *              wrfchemhelp.gsd@noaa.gov                             *
 *                                                                   *
 *********************************************************************
 WARNING: dust option 1 currently works only with the GOCART aerosol option.
 WARNING: sea salt option 1 currently works only with the GOCART aerosol option.
 INPUT LandUse = "USGS"
  LANDUSE TYPE = "USGS" FOUND 33  CATEGORIES 2  SEASONS WATER CATEGORY =  16  SNOW CATEGORY =  24
 INITIALIZE THREE Noah LSM RELATED TABLES
  LANDUSE TYPE = USGS FOUND 27  CATEGORIES
  INPUT SOIL TEXTURE CLASSIFICATION = STAS
  SOIL TEXTURE CLASSIFICATION = STAS FOUND 19  CATEGORIES
 *********************************************************************
 *             PROGRAM:WRF/CHEM V3.6 MODEL
 *                                                                   *
 *    PLEASE REPORT ANY BUGS TO WRF/CHEM HELP at                     *
 *                                                                   *
 *              wrfchemhelp.gsd@noaa.gov                             *
 *                                                                   *
 *********************************************************************
 WARNING: dust option 1 currently works only with the GOCART aerosol option.
 WARNING: sea salt option 1 currently works only with the GOCART aerosol option.
Timing for Writing wrfout_d02_2016-02-05_12:00:00 for domain        2:    1.89819 elapsed seconds
  mediation_integrate: med_read_wrf_chem_emissions: Open file wrfchemi_12z_d02
  HOURLY EMISSIONS UPDATE TIME         .0        .0
 mediation_integrate: med_read_wrf_chem_emissions: Read emissions for time 2016-02-05_12:00:00
 **WARNING** Time in input file not being checked **WARNING**
  Tile Strategy is not specified. Assuming 1D-Y
 WRF TILE   1 IS      1 IE     36 JS      1 JE     26
 WRF NUMBER OF TILES =   1
  photolysis_driver: called for domain  2
Timing for Writing wrfout_d03_2016-02-05_12:00:00 for domain        3:    1.61774 elapsed seconds
  mediation_integrate: med_read_wrf_chem_emissions: Open file wrfchemi_12z_d03
  HOURLY EMISSIONS UPDATE TIME         .0        .0
 mediation_integrate: med_read_wrf_chem_emissions: Read emissions for time 2016-02-05_12:00:00
 **WARNING** Time in input file not being checked **WARNING**
  Tile Strategy is not specified. Assuming 1D-Y
 WRF TILE   1 IS      1 IE     31 JS      1 JE     24
 WRF NUMBER OF TILES =   1
  photolysis_driver: called for domain  3
Timing for main: time 2016-02-05_12:00:13 on domain   3:    5.33799 elapsed seconds
Timing for main: time 2016-02-05_12:00:26 on domain   3:     .22900 elapsed seconds
Timing for main: time 2016-02-05_12:00:40 on domain   3:     .27464 elapsed seconds
Timing for Writing wrfout_d04_2016-02-05_12:00:00 for domain        4:    1.82559 elapsed seconds
  mediation_integrate: med_read_wrf_chem_emissions: Open file wrfchemi_12z_d04
  HOURLY EMISSIONS UPDATE TIME         .0        .0
 mediation_integrate: med_read_wrf_chem_emissions: Read emissions for time 2016-02-05_12:00:00
 **WARNING** Time in input file not being checked **WARNING**
  Tile Strategy is not specified. Assuming 1D-Y
 WRF TILE   1 IS      1 IE     22 JS      1 JE     39
 WRF NUMBER OF TILES =   1
  photolysis_driver: called for domain  4
Timing for main: time 2016-02-05_12:00:20 on domain   4:    6.07594 elapsed seconds
Timing for main: time 2016-02-05_12:00:40 on domain   4:     .28481 elapsed seconds
Timing for main: time 2016-02-05_12:00:40 on domain   2:   35.94957 elapsed seconds
Timing for main: time 2016-02-05_12:00:53 on domain   3:     .28245 elapsed seconds
Timing for main: time 2016-02-05_12:01:06 on domain   3:     .27388 elapsed seconds
Timing for main: time 2016-02-05_12:01:20 on domain   3:     .27296 elapsed seconds
Timing for main: time 2016-02-05_12:01:00 on domain   4:     .33655 elapsed seconds
Timing for main: time 2016-02-05_12:01:20 on domain   4:     .32595 elapsed seconds
Timing for main: time 2016-02-05_12:01:20 on domain   2:    2.36359 elapsed seconds
Timing for main: time 2016-02-05_12:01:33 on domain   3:     .28431 elapsed seconds
Timing for main: time 2016-02-05_12:01:46 on domain   3:     .27253 elapsed seconds
Timing for main: time 2016-02-05_12:02:00 on domain   3:     .27247 elapsed seconds
Timing for main: time 2016-02-05_12:01:40 on domain   4:     .33183 elapsed seconds
Timing for main: time 2016-02-05_12:02:00 on domain   4:     .32401 elapsed seconds
Timing for main: time 2016-02-05_12:02:00 on domain   2:    2.49214 elapsed seconds
Timing for main: time 2016-02-05_12:02:00 on domain   1:   58.05365 elapsed seconds
Timing for main: time 2016-02-05_12:02:13 on domain   3:     .28468 elapsed seconds
Timing for main: time 2016-02-05_12:02:26 on domain   3:     .34795 elapsed seconds
Timing for main: time 2016-02-05_12:02:40 on domain   3:     .27252 elapsed seconds
Timing for main: time 2016-02-05_12:02:20 on domain   4:     .33640 elapsed seconds
Timing for main: time 2016-02-05_12:02:40 on domain   4:     .32492 elapsed seconds
Timing for main: time 2016-02-05_12:02:40 on domain   2:    2.52410 elapsed seconds
Timing for main: time 2016-02-05_12:02:53 on domain   3:     .28396 elapsed seconds
Timing for main: time 2016-02-05_12:03:06 on domain   3:     .27231 elapsed seconds
Timing for main: time 2016-02-05_12:03:20 on domain   3:     .27265 elapsed seconds
Timing for main: time 2016-02-05_12:03:00 on domain   4:     .33665 elapsed seconds
Timing for main: time 2016-02-05_12:03:20 on domain   4:     .32382 elapsed seconds
Timing for main: time 2016-02-05_12:03:20 on domain   2:    2.43122 elapsed seconds
Timing for main: time 2016-02-05_12:03:33 on domain   3:     .28910 elapsed seconds
Timing for main: time 2016-02-05_12:03:46 on domain   3:     .27226 elapsed seconds
Timing for main: time 2016-02-05_12:04:00 on domain   3:     .27222 elapsed seconds
Timing for main: time 2016-02-05_12:03:40 on domain   4:     .33957 elapsed seconds
Timing for main: time 2016-02-05_12:04:00 on domain   4:     .32462 elapsed seconds
Timing for main: time 2016-02-05_12:04:00 on domain   2:    2.43367 elapsed seconds
Timing for main: time 2016-02-05_12:04:00 on domain   1:    7.83256 elapsed seconds
Timing for main: time 2016-02-05_12:04:13 on domain   3:     .28627 elapsed seconds
Timing for main: time 2016-02-05_12:04:26 on domain   3:     .27068 elapsed seconds
Timing for main: time 2016-02-05_12:04:40 on domain   3:     .27242 elapsed seconds
Timing for main: time 2016-02-05_12:04:20 on domain   4:     .33843 elapsed seconds
Timing for main: time 2016-02-05_12:04:40 on domain   4:     .32452 elapsed seconds
Timing for main: time 2016-02-05_12:04:40 on domain   2:    2.44557 elapsed seconds
Timing for main: time 2016-02-05_12:04:53 on domain   3:     .28881 elapsed seconds
Timing for main: time 2016-02-05_12:05:06 on domain   3:     .28514 elapsed seconds
Timing for main: time 2016-02-05_12:05:20 on domain   3:     .27196 elapsed seconds
Timing for main: time 2016-02-05_12:05:00 on domain   4:     .35158 elapsed seconds
Timing for main: time 2016-02-05_12:05:20 on domain   4:     .32497 elapsed seconds
Timing for main: time 2016-02-05_12:05:20 on domain   2:    2.47443 elapsed seconds
Timing for main: time 2016-02-05_12:05:33 on domain   3:     .28697 elapsed seconds
Timing for main: time 2016-02-05_12:05:46 on domain   3:     .27677 elapsed seconds
Timing for main: time 2016-02-05_12:06:00 on domain   3:     .27172 elapsed seconds
Timing for main: time 2016-02-05_12:05:40 on domain   4:     .33726 elapsed seconds
Timing for main: time 2016-02-05_12:06:00 on domain   4:     .32505 elapsed seconds
Timing for main: time 2016-02-05_12:06:00 on domain   2:    2.43447 elapsed seconds
Timing for main: time 2016-02-05_12:06:00 on domain   1:    7.84444 elapsed seconds
Timing for main: time 2016-02-05_12:06:13 on domain   3:     .28420 elapsed seconds
Timing for main: time 2016-02-05_12:06:26 on domain   3:     .27297 elapsed seconds
Timing for main: time 2016-02-05_12:06:40 on domain   3:     .27209 elapsed seconds
Timing for main: time 2016-02-05_12:06:20 on domain   4:     .33753 elapsed seconds
Timing for main: time 2016-02-05_12:06:40 on domain   4:     .32454 elapsed seconds
Timing for main: time 2016-02-05_12:06:40 on domain   2:    2.44621 elapsed seconds
Timing for main: time 2016-02-05_12:06:53 on domain   3:     .28097 elapsed seconds
Timing for main: time 2016-02-05_12:07:06 on domain   3:     .27259 elapsed seconds
Timing for main: time 2016-02-05_12:07:20 on domain   3:     .27264 elapsed seconds
Timing for main: time 2016-02-05_12:07:00 on domain   4:     .33783 elapsed seconds
Timing for main: time 2016-02-05_12:07:20 on domain   4:     .32475 elapsed seconds
Timing for main: time 2016-02-05_12:07:20 on domain   2:    2.42905 elapsed seconds
Timing for main: time 2016-02-05_12:07:33 on domain   3:     .28458 elapsed seconds
Timing for main: time 2016-02-05_12:07:46 on domain   3:     .27227 elapsed seconds
Timing for main: time 2016-02-05_12:08:00 on domain   3:     .27247 elapsed seconds
Timing for main: time 2016-02-05_12:07:40 on domain   4:     .33761 elapsed seconds
Timing for main: time 2016-02-05_12:08:00 on domain   4:     .32488 elapsed seconds
Timing for main: time 2016-02-05_12:08:00 on domain   2:    2.42974 elapsed seconds
Timing for main: time 2016-02-05_12:08:00 on domain   1:    7.78370 elapsed seconds
Timing for main: time 2016-02-05_12:08:13 on domain   3:     .28429 elapsed seconds
Timing for main: time 2016-02-05_12:08:26 on domain   3:     .27308 elapsed seconds
Timing for main: time 2016-02-05_12:08:40 on domain   3:     .27260 elapsed seconds
Timing for main: time 2016-02-05_12:08:20 on domain   4:     .33839 elapsed seconds
Timing for main: time 2016-02-05_12:08:40 on domain   4:     .32456 elapsed seconds
Timing for main: time 2016-02-05_12:08:40 on domain   2:    2.44671 elapsed seconds
Timing for main: time 2016-02-05_12:08:53 on domain   3:     .28449 elapsed seconds
Timing for main: time 2016-02-05_12:09:06 on domain   3:     .27281 elapsed seconds
Timing for main: time 2016-02-05_12:09:20 on domain   3:     .27281 elapsed seconds
Timing for main: time 2016-02-05_12:09:00 on domain   4:     .37436 elapsed seconds
Timing for main: time 2016-02-05_12:09:20 on domain   4:     .35532 elapsed seconds
Timing for main: time 2016-02-05_12:09:20 on domain   2:    2.49841 elapsed seconds
Timing for main: time 2016-02-05_12:09:33 on domain   3:     .28437 elapsed seconds
Timing for main: time 2016-02-05_12:09:46 on domain   3:     .27200 elapsed seconds
Timing for main: time 2016-02-05_12:10:00 on domain   3:     .27247 elapsed seconds
Timing for main: time 2016-02-05_12:09:40 on domain   4:     .34391 elapsed seconds
Timing for main: time 2016-02-05_12:10:00 on domain   4:     .33978 elapsed seconds
Timing for main: time 2016-02-05_12:10:00 on domain   2:    2.44981 elapsed seconds
Timing for main: time 2016-02-05_12:10:00 on domain   1:    7.87591 elapsed seconds
Timing for main: time 2016-02-05_12:10:13 on domain   3:     .29577 elapsed seconds
Timing for main: time 2016-02-05_12:10:26 on domain   3:     .27205 elapsed seconds
Timing for main: time 2016-02-05_12:10:40 on domain   3:     .27364 elapsed seconds
Timing for main: time 2016-02-05_12:10:20 on domain   4:     .33802 elapsed seconds
Timing for main: time 2016-02-05_12:10:40 on domain   4:     .32466 elapsed seconds
Timing for main: time 2016-02-05_12:10:40 on domain   2:    2.47260 elapsed seconds
Timing for main: time 2016-02-05_12:10:53 on domain   3:     .28368 elapsed seconds
Timing for main: time 2016-02-05_12:11:06 on domain   3:     .27300 elapsed seconds
Timing for main: time 2016-02-05_12:11:20 on domain   3:     .27177 elapsed seconds
Timing for main: time 2016-02-05_12:11:00 on domain   4:     .35105 elapsed seconds
Timing for main: time 2016-02-05_12:11:20 on domain   4:     .32510 elapsed seconds
Timing for main: time 2016-02-05_12:11:20 on domain   2:    2.44194 elapsed seconds
Timing for main: time 2016-02-05_12:11:33 on domain   3:     .28426 elapsed seconds
Timing for main: time 2016-02-05_12:11:46 on domain   3:     .27249 elapsed seconds
Timing for main: time 2016-02-05_12:12:00 on domain   3:     .27278 elapsed seconds
Timing for main: time 2016-02-05_12:11:40 on domain   4:     .33804 elapsed seconds
Timing for main: time 2016-02-05_12:12:00 on domain   4:     .32618 elapsed seconds
Timing for main: time 2016-02-05_12:12:00 on domain   2:    2.43092 elapsed seconds
Timing for main: time 2016-02-05_12:12:00 on domain   1:    7.83504 elapsed seconds
Timing for main: time 2016-02-05_12:12:13 on domain   3:     .28380 elapsed seconds
Timing for main: time 2016-02-05_12:12:26 on domain   3:     .27278 elapsed seconds
Timing for main: time 2016-02-05_12:12:40 on domain   3:     .27273 elapsed seconds
Timing for main: time 2016-02-05_12:12:20 on domain   4:     .34423 elapsed seconds
Timing for main: time 2016-02-05_12:12:40 on domain   4:     .32598 elapsed seconds
Timing for main: time 2016-02-05_12:12:40 on domain   2:    2.45432 elapsed seconds
Timing for main: time 2016-02-05_12:12:53 on domain   3:     .28342 elapsed seconds
Timing for main: time 2016-02-05_12:13:06 on domain   3:     .27272 elapsed seconds
Timing for main: time 2016-02-05_12:13:20 on domain   3:     .27522 elapsed seconds
Timing for main: time 2016-02-05_12:13:00 on domain   4:     .33950 elapsed seconds
Timing for main: time 2016-02-05_12:13:20 on domain   4:     .32617 elapsed seconds
Timing for main: time 2016-02-05_12:13:20 on domain   2:    2.43455 elapsed seconds
Timing for main: time 2016-02-05_12:13:33 on domain   3:     .28364 elapsed seconds
Timing for main: time 2016-02-05_12:13:46 on domain   3:     .27253 elapsed seconds
Timing for main: time 2016-02-05_12:14:00 on domain   3:     .27278 elapsed seconds
Timing for main: time 2016-02-05_12:13:40 on domain   4:     .33895 elapsed seconds
Timing for main: time 2016-02-05_12:14:00 on domain   4:     .32535 elapsed seconds
Timing for main: time 2016-02-05_12:14:00 on domain   2:    2.43020 elapsed seconds
Timing for main: time 2016-02-05_12:14:00 on domain   1:    7.79725 elapsed seconds
Timing for main: time 2016-02-05_12:14:13 on domain   3:     .28409 elapsed seconds
Timing for main: time 2016-02-05_12:14:26 on domain   3:     .27321 elapsed seconds
Timing for main: time 2016-02-05_12:14:40 on domain   3:     .27242 elapsed seconds
Timing for main: time 2016-02-05_12:14:20 on domain   4:     .33593 elapsed seconds
Timing for main: time 2016-02-05_12:14:40 on domain   4:     .32628 elapsed seconds
Timing for main: time 2016-02-05_12:14:40 on domain   2:    2.44819 elapsed seconds
Timing for main: time 2016-02-05_12:14:53 on domain   3:     .28315 elapsed seconds
Timing for main: time 2016-02-05_12:15:06 on domain   3:     .27268 elapsed seconds
Timing for main: time 2016-02-05_12:15:20 on domain   3:     .28694 elapsed seconds
Timing for main: time 2016-02-05_12:15:00 on domain   4:     .35342 elapsed seconds
Timing for main: time 2016-02-05_12:15:20 on domain   4:     .32572 elapsed seconds
Timing for main: time 2016-02-05_12:15:20 on domain   2:    2.46018 elapsed seconds
Timing for main: time 2016-02-05_12:15:33 on domain   3:     .28390 elapsed seconds
Timing for main: time 2016-02-05_12:15:46 on domain   3:     .27254 elapsed seconds
Timing for main: time 2016-02-05_12:16:00 on domain   3:     .27413 elapsed seconds
Timing for main: time 2016-02-05_12:15:40 on domain   4:     .33813 elapsed seconds
Timing for main: time 2016-02-05_12:16:00 on domain   4:     .32559 elapsed seconds
Timing for main: time 2016-02-05_12:16:00 on domain   2:    2.44744 elapsed seconds
Timing for main: time 2016-02-05_12:16:00 on domain   1:    7.83429 elapsed seconds
Timing for main: time 2016-02-05_12:16:13 on domain   3:     .28347 elapsed seconds
Timing for main: time 2016-02-05_12:16:26 on domain   3:     .27270 elapsed seconds
Timing for main: time 2016-02-05_12:16:40 on domain   3:     .27279 elapsed seconds
Timing for main: time 2016-02-05_12:16:20 on domain   4:     .33842 elapsed seconds
Timing for main: time 2016-02-05_12:16:40 on domain   4:     .32606 elapsed seconds
Timing for main: time 2016-02-05_12:16:40 on domain   2:    2.44677 elapsed seconds
Timing for main: time 2016-02-05_12:16:53 on domain   3:     .28345 elapsed seconds
Timing for main: time 2016-02-05_12:17:06 on domain   3:     .27340 elapsed seconds
Timing for main: time 2016-02-05_12:17:20 on domain   3:     .27333 elapsed seconds
Timing for main: time 2016-02-05_12:17:00 on domain   4:     .33845 elapsed seconds
Timing for main: time 2016-02-05_12:17:20 on domain   4:     .32648 elapsed seconds
Timing for main: time 2016-02-05_12:17:20 on domain   2:    2.43313 elapsed seconds
Timing for main: time 2016-02-05_12:17:33 on domain   3:     .28382 elapsed seconds
Timing for main: time 2016-02-05_12:17:46 on domain   3:     .27469 elapsed seconds
Timing for main: time 2016-02-05_12:18:00 on domain   3:     .27304 elapsed seconds
Timing for main: time 2016-02-05_12:17:40 on domain   4:     .33833 elapsed seconds
Timing for main: time 2016-02-05_12:18:00 on domain   4:     .32592 elapsed seconds
Timing for main: time 2016-02-05_12:18:00 on domain   2:    2.43364 elapsed seconds
Timing for main: time 2016-02-05_12:18:00 on domain   1:    7.80301 elapsed seconds
Timing for main: time 2016-02-05_12:18:13 on domain   3:     .28517 elapsed seconds
Timing for main: time 2016-02-05_12:18:26 on domain   3:     .27266 elapsed seconds
Timing for main: time 2016-02-05_12:18:40 on domain   3:     .27293 elapsed seconds
Timing for main: time 2016-02-05_12:18:20 on domain   4:     .33889 elapsed seconds
Timing for main: time 2016-02-05_12:18:40 on domain   4:     .32653 elapsed seconds
Timing for main: time 2016-02-05_12:18:40 on domain   2:    2.44999 elapsed seconds
Timing for main: time 2016-02-05_12:18:53 on domain   3:     .28429 elapsed seconds
Timing for main: time 2016-02-05_12:19:06 on domain   3:     .27267 elapsed seconds
Timing for main: time 2016-02-05_12:19:20 on domain   3:     .27229 elapsed seconds
Timing for main: time 2016-02-05_12:19:00 on domain   4:     .33877 elapsed seconds
Timing for main: time 2016-02-05_12:19:20 on domain   4:     .32608 elapsed seconds
Timing for main: time 2016-02-05_12:19:20 on domain   2:    2.43061 elapsed seconds
Timing for main: time 2016-02-05_12:19:33 on domain   3:     .28406 elapsed seconds
Timing for main: time 2016-02-05_12:19:46 on domain   3:     .27292 elapsed seconds
Timing for main: time 2016-02-05_12:20:00 on domain   3:     .27274 elapsed seconds
Timing for main: time 2016-02-05_12:19:40 on domain   4:     .33828 elapsed seconds
Timing for main: time 2016-02-05_12:20:00 on domain   4:     .34177 elapsed seconds
Timing for main: time 2016-02-05_12:20:00 on domain   2:    2.44665 elapsed seconds
Timing for main: time 2016-02-05_12:20:00 on domain   1:    7.80680 elapsed seconds
Timing for main: time 2016-02-05_12:20:13 on domain   3:     .28435 elapsed seconds
Timing for main: time 2016-02-05_12:20:26 on domain   3:     .28530 elapsed seconds
Timing for main: time 2016-02-05_12:20:40 on domain   3:     .27275 elapsed seconds
Timing for main: time 2016-02-05_12:20:20 on domain   4:     .33950 elapsed seconds
Timing for main: time 2016-02-05_12:20:40 on domain   4:     .32668 elapsed seconds
Timing for main: time 2016-02-05_12:20:40 on domain   2:    2.46206 elapsed seconds
Timing for main: time 2016-02-05_12:20:53 on domain   3:     .28496 elapsed seconds
Timing for main: time 2016-02-05_12:21:06 on domain   3:     .27268 elapsed seconds
Timing for main: time 2016-02-05_12:21:20 on domain   3:     .27233 elapsed seconds
Timing for main: time 2016-02-05_12:21:00 on domain   4:     .33836 elapsed seconds
Timing for main: time 2016-02-05_12:21:20 on domain   4:     .32638 elapsed seconds
Timing for main: time 2016-02-05_12:21:20 on domain   2:    2.44748 elapsed seconds
Timing for main: time 2016-02-05_12:21:33 on domain   3:     .28365 elapsed seconds
Timing for main: time 2016-02-05_12:21:46 on domain   3:     .27239 elapsed seconds
Timing for main: time 2016-02-05_12:22:00 on domain   3:     .27211 elapsed seconds
Timing for main: time 2016-02-05_12:21:40 on domain   4:     .33878 elapsed seconds
Timing for main: time 2016-02-05_12:22:00 on domain   4:     .32795 elapsed seconds
Timing for main: time 2016-02-05_12:22:00 on domain   2:    2.43526 elapsed seconds
Timing for main: time 2016-02-05_12:22:00 on domain   1:    7.82334 elapsed seconds
Timing for main: time 2016-02-05_12:22:13 on domain   3:     .28029 elapsed seconds
Timing for main: time 2016-02-05_12:22:26 on domain   3:     .27198 elapsed seconds
Timing for main: time 2016-02-05_12:22:40 on domain   3:     .27257 elapsed seconds
Timing for main: time 2016-02-05_12:22:20 on domain   4:     .33913 elapsed seconds
Timing for main: time 2016-02-05_12:22:40 on domain   4:     .32604 elapsed seconds
Timing for main: time 2016-02-05_12:22:40 on domain   2:    2.44786 elapsed seconds
Timing for main: time 2016-02-05_12:22:53 on domain   3:     .28338 elapsed seconds
Timing for main: time 2016-02-05_12:23:06 on domain   3:     .27264 elapsed seconds
Timing for main: time 2016-02-05_12:23:20 on domain   3:     .27255 elapsed seconds
Timing for main: time 2016-02-05_12:23:00 on domain   4:     .33948 elapsed seconds
Timing for main: time 2016-02-05_12:23:20 on domain   4:     .32652 elapsed seconds
Timing for main: time 2016-02-05_12:23:20 on domain   2:    2.43297 elapsed seconds
Timing for main: time 2016-02-05_12:23:33 on domain   3:     .35452 elapsed seconds
Timing for main: time 2016-02-05_12:23:46 on domain   3:     .28889 elapsed seconds
Timing for main: time 2016-02-05_12:24:00 on domain   3:     .27295 elapsed seconds
Timing for main: time 2016-02-05_12:23:40 on domain   4:     .33797 elapsed seconds
Timing for main: time 2016-02-05_12:24:00 on domain   4:     .32755 elapsed seconds
Timing for main: time 2016-02-05_12:24:00 on domain   2:    2.52299 elapsed seconds
Timing for main: time 2016-02-05_12:24:00 on domain   1:    7.89380 elapsed seconds
Timing for main: time 2016-02-05_12:24:13 on domain   3:     .28370 elapsed seconds
Timing for main: time 2016-02-05_12:24:26 on domain   3:     .27252 elapsed seconds
Timing for main: time 2016-02-05_12:24:40 on domain   3:     .27169 elapsed seconds
Timing for main: time 2016-02-05_12:24:20 on domain   4:     .33922 elapsed seconds
Timing for main: time 2016-02-05_12:24:40 on domain   4:     .32632 elapsed seconds
Timing for main: time 2016-02-05_12:24:40 on domain   2:    2.44786 elapsed seconds
Timing for main: time 2016-02-05_12:24:53 on domain   3:     .28298 elapsed seconds
Timing for main: time 2016-02-05_12:25:06 on domain   3:     .27251 elapsed seconds
Timing for main: time 2016-02-05_12:25:20 on domain   3:     .27212 elapsed seconds
Timing for main: time 2016-02-05_12:25:00 on domain   4:     .35397 elapsed seconds
Timing for main: time 2016-02-05_12:25:20 on domain   4:     .32746 elapsed seconds
Timing for main: time 2016-02-05_12:25:20 on domain   2:    2.44769 elapsed seconds
Timing for main: time 2016-02-05_12:25:33 on domain   3:     .29601 elapsed seconds
Timing for main: time 2016-02-05_12:25:46 on domain   3:     .27204 elapsed seconds
Timing for main: time 2016-02-05_12:26:00 on domain   3:     .27221 elapsed seconds
Timing for main: time 2016-02-05_12:25:40 on domain   4:     .34099 elapsed seconds
Timing for main: time 2016-02-05_12:26:00 on domain   4:     .32737 elapsed seconds
Timing for main: time 2016-02-05_12:26:00 on domain   2:    2.44714 elapsed seconds
Timing for main: time 2016-02-05_12:26:00 on domain   1:    7.82064 elapsed seconds
Timing for main: time 2016-02-05_12:26:13 on domain   3:     .28324 elapsed seconds
Timing for main: time 2016-02-05_12:26:26 on domain   3:     .27244 elapsed seconds
Timing for main: time 2016-02-05_12:26:40 on domain   3:     .27388 elapsed seconds
Timing for main: time 2016-02-05_12:26:20 on domain   4:     .34003 elapsed seconds
Timing for main: time 2016-02-05_12:26:40 on domain   4:     .32634 elapsed seconds
Timing for main: time 2016-02-05_12:26:40 on domain   2:    2.46515 elapsed seconds
Timing for main: time 2016-02-05_12:26:53 on domain   3:     .28366 elapsed seconds
Timing for main: time 2016-02-05_12:27:06 on domain   3:     .27229 elapsed seconds
Timing for main: time 2016-02-05_12:27:20 on domain   3:     .27297 elapsed seconds
Timing for main: time 2016-02-05_12:27:00 on domain   4:     .33925 elapsed seconds
Timing for main: time 2016-02-05_12:27:20 on domain   4:     .32654 elapsed seconds
Timing for main: time 2016-02-05_12:27:20 on domain   2:    2.43378 elapsed seconds
Timing for main: time 2016-02-05_12:27:33 on domain   3:     .36116 elapsed seconds
Timing for main: time 2016-02-05_12:27:46 on domain   3:     .30150 elapsed seconds
Timing for main: time 2016-02-05_12:28:00 on domain   3:     .27261 elapsed seconds
Timing for main: time 2016-02-05_12:27:40 on domain   4:     .33898 elapsed seconds
Timing for main: time 2016-02-05_12:28:00 on domain   4:     .33057 elapsed seconds
Timing for main: time 2016-02-05_12:28:00 on domain   2:    2.54460 elapsed seconds
Timing for main: time 2016-02-05_12:28:00 on domain   1:    7.92160 elapsed seconds
  photolysis_driver: called for domain  1
Timing for main: time 2016-02-05_12:28:13 on domain   3:     .28499 elapsed seconds
Timing for main: time 2016-02-05_12:28:26 on domain   3:     .27275 elapsed seconds
Timing for main: time 2016-02-05_12:28:40 on domain   3:     .27282 elapsed seconds
Timing for main: time 2016-02-05_12:28:20 on domain   4:     .33902 elapsed seconds
Timing for main: time 2016-02-05_12:28:40 on domain   4:     .32652 elapsed seconds
Timing for main: time 2016-02-05_12:28:40 on domain   2:    2.45049 elapsed seconds
Timing for main: time 2016-02-05_12:28:53 on domain   3:     .35850 elapsed seconds
Timing for main: time 2016-02-05_12:29:06 on domain   3:     .27259 elapsed seconds
Timing for main: time 2016-02-05_12:29:20 on domain   3:     .27243 elapsed seconds
Timing for main: time 2016-02-05_12:29:00 on domain   4:     .34699 elapsed seconds
Timing for main: time 2016-02-05_12:29:20 on domain   4:     .32569 elapsed seconds
Timing for main: time 2016-02-05_12:29:20 on domain   2:    2.51686 elapsed seconds
  photolysis_driver: called for domain  2
Timing for main: time 2016-02-05_12:29:33 on domain   3:     .28349 elapsed seconds
Timing for main: time 2016-02-05_12:29:46 on domain   3:     .27222 elapsed seconds
  photolysis_driver: called for domain  3
Timing for main: time 2016-02-05_12:30:00 on domain   3:    1.65505 elapsed seconds
Timing for main: time 2016-02-05_12:29:40 on domain   4:     .33899 elapsed seconds
  photolysis_driver: called for domain  4
Timing for main: time 2016-02-05_12:30:00 on domain   4:    1.92883 elapsed seconds
Timing for main: time 2016-02-05_12:30:00 on domain   2:    7.14568 elapsed seconds
Timing for main: time 2016-02-05_12:30:00 on domain   1:   13.62744 elapsed seconds
Timing for main: time 2016-02-05_12:30:13 on domain   3:     .55483 elapsed seconds
Timing for main: time 2016-02-05_12:30:26 on domain   3:     .27043 elapsed seconds
Timing for main: time 2016-02-05_12:30:40 on domain   3:     .28516 elapsed seconds
Timing for main: time 2016-02-05_12:30:20 on domain   4:     .65697 elapsed seconds
Timing for main: time 2016-02-05_12:30:40 on domain   4:     .32175 elapsed seconds
Timing for main: time 2016-02-05_12:30:40 on domain   2:    3.38734 elapsed seconds
Timing for main: time 2016-02-05_12:30:53 on domain   3:     .28216 elapsed seconds
Timing for main: time 2016-02-05_12:31:06 on domain   3:     .27163 elapsed seconds
Timing for main: time 2016-02-05_12:31:20 on domain   3:     .27026 elapsed seconds
Timing for main: time 2016-02-05_12:31:00 on domain   4:     .33686 elapsed seconds
Timing for main: time 2016-02-05_12:31:20 on domain   4:     .32539 elapsed seconds
Timing for main: time 2016-02-05_12:31:20 on domain   2:    2.42593 elapsed seconds
Timing for main: time 2016-02-05_12:31:33 on domain   3:     .36579 elapsed seconds
Timing for main: time 2016-02-05_12:31:46 on domain   3:     .29537 elapsed seconds
Timing for main: time 2016-02-05_12:32:00 on domain   3:     .27375 elapsed seconds
Timing for main: time 2016-02-05_12:31:40 on domain   4:     .33803 elapsed seconds
Timing for main: time 2016-02-05_12:32:00 on domain   4:     .32495 elapsed seconds
Timing for main: time 2016-02-05_12:32:00 on domain   2:    2.55004 elapsed seconds
Timing for main: time 2016-02-05_12:32:00 on domain   1:    9.07889 elapsed seconds
Timing for main: time 2016-02-05_12:32:13 on domain   3:     .28191 elapsed seconds
Timing for main: time 2016-02-05_12:32:26 on domain   3:     .27161 elapsed seconds
Timing for main: time 2016-02-05_12:32:40 on domain   3:     .26962 elapsed seconds
Timing for main: time 2016-02-05_12:32:20 on domain   4:     .33802 elapsed seconds
Timing for main: time 2016-02-05_12:32:40 on domain   4:     .32446 elapsed seconds
Timing for main: time 2016-02-05_12:32:40 on domain   2:    2.53871 elapsed seconds
Timing for main: time 2016-02-05_12:32:53 on domain   3:     .28168 elapsed seconds
Timing for main: time 2016-02-05_12:33:06 on domain   3:     .27051 elapsed seconds
Timing for main: time 2016-02-05_12:33:20 on domain   3:     .27073 elapsed seconds
Timing for main: time 2016-02-05_12:33:00 on domain   4:     .33256 elapsed seconds
Timing for main: time 2016-02-05_12:33:20 on domain   4:     .32534 elapsed seconds
Timing for main: time 2016-02-05_12:33:20 on domain   2:    2.42359 elapsed seconds
Timing for main: time 2016-02-05_12:33:33 on domain   3:     .28205 elapsed seconds
Timing for main: time 2016-02-05_12:33:46 on domain   3:     .27054 elapsed seconds
Timing for main: time 2016-02-05_12:34:00 on domain   3:     .27196 elapsed seconds
Timing for main: time 2016-02-05_12:33:40 on domain   4:     .33676 elapsed seconds
Timing for main: time 2016-02-05_12:34:00 on domain   4:     .32452 elapsed seconds
Timing for main: time 2016-02-05_12:34:00 on domain   2:    2.42276 elapsed seconds
Timing for main: time 2016-02-05_12:34:00 on domain   1:    7.86304 elapsed seconds
Timing for main: time 2016-02-05_12:34:13 on domain   3:     .28480 elapsed seconds
Timing for main: time 2016-02-05_12:34:26 on domain   3:     .27149 elapsed seconds
Timing for main: time 2016-02-05_12:34:40 on domain   3:     .27432 elapsed seconds
Timing for main: time 2016-02-05_12:34:20 on domain   4:     .33764 elapsed seconds
Timing for main: time 2016-02-05_12:34:40 on domain   4:     .32452 elapsed seconds
Timing for main: time 2016-02-05_12:34:40 on domain   2:    2.44478 elapsed seconds
Timing for main: time 2016-02-05_12:34:53 on domain   3:     .28146 elapsed seconds
Timing for main: time 2016-02-05_12:35:06 on domain   3:     .27060 elapsed seconds
Timing for main: time 2016-02-05_12:35:20 on domain   3:     .27065 elapsed seconds
Timing for main: time 2016-02-05_12:35:00 on domain   4:     .35201 elapsed seconds
Timing for main: time 2016-02-05_12:35:20 on domain   4:     .32490 elapsed seconds
Timing for main: time 2016-02-05_12:35:20 on domain   2:    2.43636 elapsed seconds
Timing for main: time 2016-02-05_12:35:33 on domain   3:     .28231 elapsed seconds
Timing for main: time 2016-02-05_12:35:46 on domain   3:     .28268 elapsed seconds
Timing for main: time 2016-02-05_12:36:00 on domain   3:     .27030 elapsed seconds
Timing for main: time 2016-02-05_12:35:40 on domain   4:     .33686 elapsed seconds
Timing for main: time 2016-02-05_12:36:00 on domain   4:     .32434 elapsed seconds
Timing for main: time 2016-02-05_12:36:00 on domain   2:    2.43712 elapsed seconds
Timing for main: time 2016-02-05_12:36:00 on domain   1:    7.80770 elapsed seconds
Timing for main: time 2016-02-05_12:36:13 on domain   3:     .28253 elapsed seconds
Timing for main: time 2016-02-05_12:36:26 on domain   3:     .27153 elapsed seconds
Timing for main: time 2016-02-05_12:36:40 on domain   3:     .27050 elapsed seconds
Timing for main: time 2016-02-05_12:36:20 on domain   4:     .33588 elapsed seconds
Timing for main: time 2016-02-05_12:36:40 on domain   4:     .32457 elapsed seconds
Timing for main: time 2016-02-05_12:36:40 on domain   2:    2.43849 elapsed seconds
Timing for main: time 2016-02-05_12:36:53 on domain   3:     .28115 elapsed seconds
Timing for main: time 2016-02-05_12:37:06 on domain   3:     .27070 elapsed seconds
Timing for main: time 2016-02-05_12:37:20 on domain   3:     .27074 elapsed seconds
Timing for main: time 2016-02-05_12:37:00 on domain   4:     .33634 elapsed seconds
Timing for main: time 2016-02-05_12:37:20 on domain   4:     .32470 elapsed seconds
Timing for main: time 2016-02-05_12:37:20 on domain   2:    2.43961 elapsed seconds
Timing for main: time 2016-02-05_12:37:33 on domain   3:     .28169 elapsed seconds
Timing for main: time 2016-02-05_12:37:46 on domain   3:     .27020 elapsed seconds
Timing for main: time 2016-02-05_12:38:00 on domain   3:     .27096 elapsed seconds
Timing for main: time 2016-02-05_12:37:40 on domain   4:     .33601 elapsed seconds
Timing for main: time 2016-02-05_12:38:00 on domain   4:     .32450 elapsed seconds
Timing for main: time 2016-02-05_12:38:00 on domain   2:    2.42310 elapsed seconds
Timing for main: time 2016-02-05_12:38:00 on domain   1:    7.77938 elapsed seconds
Timing for main: time 2016-02-05_12:38:13 on domain   3:     .28518 elapsed seconds
Timing for main: time 2016-02-05_12:38:26 on domain   3:     .27066 elapsed seconds
Timing for main: time 2016-02-05_12:38:40 on domain   3:     .27038 elapsed seconds
Timing for main: time 2016-02-05_12:38:20 on domain   4:     .33644 elapsed seconds
Timing for main: time 2016-02-05_12:38:40 on domain   4:     .33828 elapsed seconds
Timing for main: time 2016-02-05_12:38:40 on domain   2:    2.45430 elapsed seconds
Timing for main: time 2016-02-05_12:38:53 on domain   3:     .28210 elapsed seconds
Timing for main: time 2016-02-05_12:39:06 on domain   3:     .27058 elapsed seconds
Timing for main: time 2016-02-05_12:39:20 on domain   3:     .27084 elapsed seconds
Timing for main: time 2016-02-05_12:39:00 on domain   4:     .33661 elapsed seconds
Timing for main: time 2016-02-05_12:39:20 on domain   4:     .32489 elapsed seconds
Timing for main: time 2016-02-05_12:39:20 on domain   2:    2.42235 elapsed seconds
Timing for main: time 2016-02-05_12:39:33 on domain   3:     .28525 elapsed seconds
Timing for main: time 2016-02-05_12:39:46 on domain   3:     .26994 elapsed seconds
Timing for main: time 2016-02-05_12:40:00 on domain   3:     .27058 elapsed seconds
Timing for main: time 2016-02-05_12:39:40 on domain   4:     .33672 elapsed seconds
Timing for main: time 2016-02-05_12:40:00 on domain   4:     .33955 elapsed seconds
Timing for main: time 2016-02-05_12:40:00 on domain   2:    2.44201 elapsed seconds
Timing for main: time 2016-02-05_12:40:00 on domain   1:    7.79708 elapsed seconds
Timing for main: time 2016-02-05_12:40:13 on domain   3:     .28165 elapsed seconds
Timing for main: time 2016-02-05_12:40:26 on domain   3:     .27054 elapsed seconds
Timing for main: time 2016-02-05_12:40:40 on domain   3:     .27074 elapsed seconds
Timing for main: time 2016-02-05_12:40:20 on domain   4:     .33716 elapsed seconds
Timing for main: time 2016-02-05_12:40:40 on domain   4:     .32431 elapsed seconds
Timing for main: time 2016-02-05_12:40:40 on domain   2:    2.44274 elapsed seconds
Timing for main: time 2016-02-05_12:40:53 on domain   3:     .29393 elapsed seconds
Timing for main: time 2016-02-05_12:41:06 on domain   3:     .27096 elapsed seconds
Timing for main: time 2016-02-05_12:41:20 on domain   3:     .27112 elapsed seconds
Timing for main: time 2016-02-05_12:41:00 on domain   4:     .33706 elapsed seconds
Timing for main: time 2016-02-05_12:41:20 on domain   4:     .32460 elapsed seconds
Timing for main: time 2016-02-05_12:41:20 on domain   2:    2.43684 elapsed seconds
Timing for main: time 2016-02-05_12:41:33 on domain   3:     .28150 elapsed seconds
Timing for main: time 2016-02-05_12:41:46 on domain   3:     .27050 elapsed seconds
Timing for main: time 2016-02-05_12:42:00 on domain   3:     .27132 elapsed seconds
Timing for main: time 2016-02-05_12:41:40 on domain   4:     .33789 elapsed seconds
Timing for main: time 2016-02-05_12:42:00 on domain   4:     .32439 elapsed seconds
Timing for main: time 2016-02-05_12:42:00 on domain   2:    2.42738 elapsed seconds
Timing for main: time 2016-02-05_12:42:00 on domain   1:    7.79620 elapsed seconds
Timing for main: time 2016-02-05_12:42:13 on domain   3:     .28171 elapsed seconds
Timing for main: time 2016-02-05_12:42:26 on domain   3:     .27041 elapsed seconds
Timing for main: time 2016-02-05_12:42:40 on domain   3:     .27059 elapsed seconds
Timing for main: time 2016-02-05_12:42:20 on domain   4:     .33802 elapsed seconds
Timing for main: time 2016-02-05_12:42:40 on domain   4:     .32453 elapsed seconds
Timing for main: time 2016-02-05_12:42:40 on domain   2:    2.45954 elapsed seconds
Timing for main: time 2016-02-05_12:42:53 on domain   3:     .28268 elapsed seconds
Timing for main: time 2016-02-05_12:43:06 on domain   3:     .27053 elapsed seconds
Timing for main: time 2016-02-05_12:43:20 on domain   3:     .27649 elapsed seconds
Timing for main: time 2016-02-05_12:43:00 on domain   4:     .33673 elapsed seconds
Timing for main: time 2016-02-05_12:43:20 on domain   4:     .32490 elapsed seconds
Timing for main: time 2016-02-05_12:43:20 on domain   2:    2.42814 elapsed seconds
Timing for main: time 2016-02-05_12:43:33 on domain   3:     .28239 elapsed seconds
Timing for main: time 2016-02-05_12:43:46 on domain   3:     .27020 elapsed seconds
Timing for main: time 2016-02-05_12:44:00 on domain   3:     .27079 elapsed seconds
Timing for main: time 2016-02-05_12:43:40 on domain   4:     .33669 elapsed seconds
Timing for main: time 2016-02-05_12:44:00 on domain   4:     .32511 elapsed seconds
Timing for main: time 2016-02-05_12:44:00 on domain   2:    2.42423 elapsed seconds
Timing for main: time 2016-02-05_12:44:00 on domain   1:    7.79171 elapsed seconds
Timing for main: time 2016-02-05_12:44:13 on domain   3:     .28170 elapsed seconds
Timing for main: time 2016-02-05_12:44:26 on domain   3:     .27040 elapsed seconds
Timing for main: time 2016-02-05_12:44:40 on domain   3:     .27255 elapsed seconds
Timing for main: time 2016-02-05_12:44:20 on domain   4:     .33676 elapsed seconds
Timing for main: time 2016-02-05_12:44:40 on domain   4:     .32484 elapsed seconds
Timing for main: time 2016-02-05_12:44:40 on domain   2:    2.44193 elapsed seconds
Timing for main: time 2016-02-05_12:44:53 on domain   3:     .28348 elapsed seconds
Timing for main: time 2016-02-05_12:45:06 on domain   3:     .27046 elapsed seconds
Timing for main: time 2016-02-05_12:45:20 on domain   3:     .27087 elapsed seconds
Timing for main: time 2016-02-05_12:45:00 on domain   4:     .35147 elapsed seconds
Timing for main: time 2016-02-05_12:45:20 on domain   4:     .32501 elapsed seconds
Timing for main: time 2016-02-05_12:45:20 on domain   2:    2.44162 elapsed seconds
Timing for main: time 2016-02-05_12:45:33 on domain   3:     .28155 elapsed seconds
Timing for main: time 2016-02-05_12:45:46 on domain   3:     .27088 elapsed seconds
Timing for main: time 2016-02-05_12:46:00 on domain   3:     .28417 elapsed seconds
Timing for main: time 2016-02-05_12:45:40 on domain   4:     .33670 elapsed seconds
Timing for main: time 2016-02-05_12:46:00 on domain   4:     .32620 elapsed seconds
Timing for main: time 2016-02-05_12:46:00 on domain   2:    2.43892 elapsed seconds
Timing for main: time 2016-02-05_12:46:00 on domain   1:    7.80106 elapsed seconds
Timing for main: time 2016-02-05_12:46:13 on domain   3:     .28137 elapsed seconds
Timing for main: time 2016-02-05_12:46:26 on domain   3:     .27217 elapsed seconds
Timing for main: time 2016-02-05_12:46:40 on domain   3:     .27367 elapsed seconds
Timing for main: time 2016-02-05_12:46:20 on domain   4:     .33665 elapsed seconds
Timing for main: time 2016-02-05_12:46:40 on domain   4:     .32562 elapsed seconds
Timing for main: time 2016-02-05_12:46:40 on domain   2:    2.44621 elapsed seconds
Timing for main: time 2016-02-05_12:46:53 on domain   3:     .28237 elapsed seconds
Timing for main: time 2016-02-05_12:47:06 on domain   3:     .27053 elapsed seconds
Timing for main: time 2016-02-05_12:47:20 on domain   3:     .27040 elapsed seconds
Timing for main: time 2016-02-05_12:47:00 on domain   4:     .33611 elapsed seconds
Timing for main: time 2016-02-05_12:47:20 on domain   4:     .32553 elapsed seconds
Timing for main: time 2016-02-05_12:47:20 on domain   2:    2.42585 elapsed seconds
Timing for main: time 2016-02-05_12:47:33 on domain   3:     .28218 elapsed seconds
Timing for main: time 2016-02-05_12:47:46 on domain   3:     .27012 elapsed seconds
Timing for main: time 2016-02-05_12:48:00 on domain   3:     .27056 elapsed seconds
Timing for main: time 2016-02-05_12:47:40 on domain   4:     .33869 elapsed seconds
Timing for main: time 2016-02-05_12:48:00 on domain   4:     .32476 elapsed seconds
Timing for main: time 2016-02-05_12:48:00 on domain   2:    2.44052 elapsed seconds
Timing for main: time 2016-02-05_12:48:00 on domain   1:    7.80473 elapsed seconds
Timing for main: time 2016-02-05_12:48:13 on domain   3:     .28191 elapsed seconds
Timing for main: time 2016-02-05_12:48:26 on domain   3:     .26961 elapsed seconds
Timing for main: time 2016-02-05_12:48:40 on domain   3:     .27047 elapsed seconds
Timing for main: time 2016-02-05_12:48:20 on domain   4:     .33375 elapsed seconds
Timing for main: time 2016-02-05_12:48:40 on domain   4:     .32555 elapsed seconds
Timing for main: time 2016-02-05_12:48:40 on domain   2:    2.43946 elapsed seconds
Timing for main: time 2016-02-05_12:48:53 on domain   3:     .28176 elapsed seconds
Timing for main: time 2016-02-05_12:49:06 on domain   3:     .27005 elapsed seconds
Timing for main: time 2016-02-05_12:49:20 on domain   3:     .27062 elapsed seconds
Timing for main: time 2016-02-05_12:49:00 on domain   4:     .33925 elapsed seconds
Timing for main: time 2016-02-05_12:49:20 on domain   4:     .32566 elapsed seconds
Timing for main: time 2016-02-05_12:49:20 on domain   2:    2.42670 elapsed seconds
Timing for main: time 2016-02-05_12:49:33 on domain   3:     .28207 elapsed seconds
Timing for main: time 2016-02-05_12:49:46 on domain   3:     .26985 elapsed seconds
Timing for main: time 2016-02-05_12:50:00 on domain   3:     .27129 elapsed seconds
Timing for main: time 2016-02-05_12:49:40 on domain   4:     .33834 elapsed seconds
Timing for main: time 2016-02-05_12:50:00 on domain   4:     .33957 elapsed seconds
Timing for main: time 2016-02-05_12:50:00 on domain   2:    2.44050 elapsed seconds
Timing for main: time 2016-02-05_12:50:00 on domain   1:    7.78468 elapsed seconds
Timing for main: time 2016-02-05_12:50:13 on domain   3:     .28299 elapsed seconds
Timing for main: time 2016-02-05_12:50:26 on domain   3:     .27033 elapsed seconds
Timing for main: time 2016-02-05_12:50:40 on domain   3:     .27003 elapsed seconds
Timing for main: time 2016-02-05_12:50:20 on domain   4:     .33870 elapsed seconds
Timing for main: time 2016-02-05_12:50:40 on domain   4:     .32498 elapsed seconds
Timing for main: time 2016-02-05_12:50:40 on domain   2:    2.44195 elapsed seconds
Timing for main: time 2016-02-05_12:50:53 on domain   3:     .28196 elapsed seconds
Timing for main: time 2016-02-05_12:51:06 on domain   3:     .28335 elapsed seconds
Timing for main: time 2016-02-05_12:51:20 on domain   3:     .27031 elapsed seconds
Timing for main: time 2016-02-05_12:51:00 on domain   4:     .33718 elapsed seconds
Timing for main: time 2016-02-05_12:51:20 on domain   4:     .32478 elapsed seconds
Timing for main: time 2016-02-05_12:51:20 on domain   2:    2.43482 elapsed seconds
Timing for main: time 2016-02-05_12:51:33 on domain   3:     .28159 elapsed seconds
Timing for main: time 2016-02-05_12:51:46 on domain   3:     .26969 elapsed seconds
Timing for main: time 2016-02-05_12:52:00 on domain   3:     .26969 elapsed seconds
Timing for main: time 2016-02-05_12:51:40 on domain   4:     .33750 elapsed seconds
Timing for main: time 2016-02-05_12:52:00 on domain   4:     .32494 elapsed seconds
Timing for main: time 2016-02-05_12:52:00 on domain   2:    2.42173 elapsed seconds
Timing for main: time 2016-02-05_12:52:00 on domain   1:    7.77630 elapsed seconds
Timing for main: time 2016-02-05_12:52:13 on domain   3:     .28265 elapsed seconds
Timing for main: time 2016-02-05_12:52:26 on domain   3:     .27063 elapsed seconds
Timing for main: time 2016-02-05_12:52:40 on domain   3:     .26996 elapsed seconds
Timing for main: time 2016-02-05_12:52:20 on domain   4:     .34012 elapsed seconds
Timing for main: time 2016-02-05_12:52:40 on domain   4:     .32487 elapsed seconds
Timing for main: time 2016-02-05_12:52:40 on domain   2:    2.44263 elapsed seconds
Timing for main: time 2016-02-05_12:52:53 on domain   3:     .28162 elapsed seconds
Timing for main: time 2016-02-05_12:53:06 on domain   3:     .26979 elapsed seconds
Timing for main: time 2016-02-05_12:53:20 on domain   3:     .27022 elapsed seconds
Timing for main: time 2016-02-05_12:53:00 on domain   4:     .33670 elapsed seconds
Timing for main: time 2016-02-05_12:53:20 on domain   4:     .32505 elapsed seconds
Timing for main: time 2016-02-05_12:53:20 on domain   2:    2.43758 elapsed seconds
Timing for main: time 2016-02-05_12:53:33 on domain   3:     .28128 elapsed seconds
Timing for main: time 2016-02-05_12:53:46 on domain   3:     .27011 elapsed seconds
Timing for main: time 2016-02-05_12:54:00 on domain   3:     .26996 elapsed seconds
Timing for main: time 2016-02-05_12:53:40 on domain   4:     .32606 elapsed seconds
Timing for main: time 2016-02-05_12:54:00 on domain   4:     .32487 elapsed seconds
Timing for main: time 2016-02-05_12:54:00 on domain   2:    2.41997 elapsed seconds
Timing for main: time 2016-02-05_12:54:00 on domain   1:    7.78931 elapsed seconds
Timing for main: time 2016-02-05_12:54:13 on domain   3:     .28176 elapsed seconds
Timing for main: time 2016-02-05_12:54:26 on domain   3:     .27033 elapsed seconds
Timing for main: time 2016-02-05_12:54:40 on domain   3:     .26989 elapsed seconds
Timing for main: time 2016-02-05_12:54:20 on domain   4:     .33691 elapsed seconds
Timing for main: time 2016-02-05_12:54:40 on domain   4:     .32518 elapsed seconds
Timing for main: time 2016-02-05_12:54:40 on domain   2:    2.43703 elapsed seconds
Timing for main: time 2016-02-05_12:54:53 on domain   3:     .28206 elapsed seconds
Timing for main: time 2016-02-05_12:55:06 on domain   3:     .27021 elapsed seconds
Timing for main: time 2016-02-05_12:55:20 on domain   3:     .26987 elapsed seconds
Timing for main: time 2016-02-05_12:55:00 on domain   4:     .35205 elapsed seconds
Timing for main: time 2016-02-05_12:55:20 on domain   4:     .32477 elapsed seconds
Timing for main: time 2016-02-05_12:55:20 on domain   2:    2.43622 elapsed seconds
Timing for main: time 2016-02-05_12:55:33 on domain   3:     .28193 elapsed seconds
Timing for main: time 2016-02-05_12:55:46 on domain   3:     .27103 elapsed seconds
Timing for main: time 2016-02-05_12:56:00 on domain   3:     .26995 elapsed seconds
Timing for main: time 2016-02-05_12:55:40 on domain   4:     .33691 elapsed seconds
Timing for main: time 2016-02-05_12:56:00 on domain   4:     .32594 elapsed seconds
Timing for main: time 2016-02-05_12:56:00 on domain   2:    2.42314 elapsed seconds
Timing for main: time 2016-02-05_12:56:00 on domain   1:    7.77477 elapsed seconds
Timing for main: time 2016-02-05_12:56:13 on domain   3:     .29105 elapsed seconds
Timing for main: time 2016-02-05_12:56:26 on domain   3:     .27050 elapsed seconds
Timing for main: time 2016-02-05_12:56:40 on domain   3:     .26967 elapsed seconds
Timing for main: time 2016-02-05_12:56:20 on domain   4:     .33734 elapsed seconds
Timing for main: time 2016-02-05_12:56:40 on domain   4:     .32506 elapsed seconds
Timing for main: time 2016-02-05_12:56:40 on domain   2:    2.45128 elapsed seconds
Timing for main: time 2016-02-05_12:56:53 on domain   3:     .28205 elapsed seconds
Timing for main: time 2016-02-05_12:57:06 on domain   3:     .27014 elapsed seconds
Timing for main: time 2016-02-05_12:57:20 on domain   3:     .27004 elapsed seconds
Timing for main: time 2016-02-05_12:57:00 on domain   4:     .33696 elapsed seconds
Timing for main: time 2016-02-05_12:57:20 on domain   4:     .32552 elapsed seconds
Timing for main: time 2016-02-05_12:57:20 on domain   2:    2.42401 elapsed seconds
Timing for main: time 2016-02-05_12:57:33 on domain   3:     .28163 elapsed seconds
Timing for main: time 2016-02-05_12:57:46 on domain   3:     .27288 elapsed seconds
Timing for main: time 2016-02-05_12:58:00 on domain   3:     .27025 elapsed seconds
Timing for main: time 2016-02-05_12:57:40 on domain   4:     .39889 elapsed seconds
Timing for main: time 2016-02-05_12:58:00 on domain   4:     .32465 elapsed seconds
Timing for main: time 2016-02-05_12:58:00 on domain   2:    2.48545 elapsed seconds
Timing for main: time 2016-02-05_12:58:00 on domain   1:    7.83874 elapsed seconds
  photolysis_driver: called for domain  1
Timing for main: time 2016-02-05_12:58:13 on domain   3:     .28286 elapsed seconds
Timing for main: time 2016-02-05_12:58:26 on domain   3:     .27000 elapsed seconds
Timing for main: time 2016-02-05_12:58:40 on domain   3:     .27042 elapsed seconds
Timing for main: time 2016-02-05_12:58:20 on domain   4:     .33456 elapsed seconds
Timing for main: time 2016-02-05_12:58:40 on domain   4:     .32562 elapsed seconds
Timing for main: time 2016-02-05_12:58:40 on domain   2:    2.45530 elapsed seconds
Timing for main: time 2016-02-05_12:58:53 on domain   3:     .28191 elapsed seconds
Timing for main: time 2016-02-05_12:59:06 on domain   3:     .27035 elapsed seconds
Timing for main: time 2016-02-05_12:59:20 on domain   3:     .27158 elapsed seconds
Timing for main: time 2016-02-05_12:59:00 on domain   4:     .33707 elapsed seconds
Timing for main: time 2016-02-05_12:59:20 on domain   4:     .32529 elapsed seconds
Timing for main: time 2016-02-05_12:59:20 on domain   2:    2.46946 elapsed seconds
  photolysis_driver: called for domain  2
Timing for main: time 2016-02-05_12:59:33 on domain   3:     .28178 elapsed seconds
Timing for main: time 2016-02-05_12:59:46 on domain   3:     .27026 elapsed seconds
  photolysis_driver: called for domain  3
Timing for main: time 2016-02-05_13:00:00 on domain   3:    1.65598 elapsed seconds
Timing for main: time 2016-02-05_12:59:40 on domain   4:     .33684 elapsed seconds
  photolysis_driver: called for domain  4
Timing for main: time 2016-02-05_13:00:00 on domain   4:    1.92794 elapsed seconds
Timing for main: time 2016-02-05_13:00:00 on domain   2:    7.14598 elapsed seconds
Timing for main: time 2016-02-05_13:00:00 on domain   1:   13.58265 elapsed seconds
Timing for Writing wrfout_d01_2016-02-05_13:00:00 for domain        1:    1.30449 elapsed seconds
  HOURLY EMISSIONS UPDATE TIME     3600.0        .0
 mediation_integrate: med_read_wrf_chem_emissions: Read emissions for time 2016-02-05_13:00:00
 **WARNING** Time in input file not being checked **WARNING**
Timing for Writing wrfout_d02_2016-02-05_13:00:00 for domain        2:    1.88414 elapsed seconds
Timing for Writing wrfout_d03_2016-02-05_13:00:00 for domain        3:    2.82535 elapsed seconds
Timing for main: time 2016-02-05_13:00:13 on domain   3:    3.39149 elapsed seconds
Timing for main: time 2016-02-05_13:00:26 on domain   3:     .40335 elapsed seconds
Timing for main: time 2016-02-05_13:00:40 on domain   3:     .31391 elapsed seconds
Timing for Writing wrfout_d04_2016-02-05_13:00:00 for domain        4:    1.97536 elapsed seconds
Timing for main: time 2016-02-05_13:00:20 on domain   4:    2.65584 elapsed seconds
Timing for main: time 2016-02-05_13:00:40 on domain   4:     .36653 elapsed seconds
Timing for main: time 2016-02-05_13:00:40 on domain   2:   10.33059 elapsed seconds
Timing for main: time 2016-02-05_13:00:53 on domain   3:     .28210 elapsed seconds
Timing for main: time 2016-02-05_13:01:06 on domain   3:     .27153 elapsed seconds
Timing for main: time 2016-02-05_13:01:20 on domain   3:     .28445 elapsed seconds
Timing for main: time 2016-02-05_13:01:00 on domain   4:     .33705 elapsed seconds
Timing for main: time 2016-02-05_13:01:20 on domain   4:     .32440 elapsed seconds
Timing for main: time 2016-02-05_13:01:20 on domain   2:    2.48949 elapsed seconds
Timing for main: time 2016-02-05_13:01:33 on domain   3:     .28336 elapsed seconds
Timing for main: time 2016-02-05_13:01:46 on domain   3:     .27036 elapsed seconds
Timing for main: time 2016-02-05_13:02:00 on domain   3:     .27041 elapsed seconds
Timing for main: time 2016-02-05_13:01:40 on domain   4:     .33896 elapsed seconds
Timing for main: time 2016-02-05_13:02:00 on domain   4:     .32575 elapsed seconds
Timing for main: time 2016-02-05_13:02:00 on domain   2:    2.42720 elapsed seconds
Timing for main: time 2016-02-05_13:02:00 on domain   1:   18.15888 elapsed seconds
Timing for main: time 2016-02-05_13:02:13 on domain   3:     .28181 elapsed seconds
Timing for main: time 2016-02-05_13:02:26 on domain   3:     .27037 elapsed seconds
Timing for main: time 2016-02-05_13:02:40 on domain   3:     .27070 elapsed seconds
Timing for main: time 2016-02-05_13:02:20 on domain   4:     .33754 elapsed seconds
Timing for main: time 2016-02-05_13:02:40 on domain   4:     .32493 elapsed seconds
Timing for main: time 2016-02-05_13:02:40 on domain   2:    2.43785 elapsed seconds
Timing for main: time 2016-02-05_13:02:53 on domain   3:     .28190 elapsed seconds
Timing for main: time 2016-02-05_13:03:06 on domain   3:     .27729 elapsed seconds
Timing for main: time 2016-02-05_13:03:20 on domain   3:     .26937 elapsed seconds
Timing for main: time 2016-02-05_13:03:00 on domain   4:     .33856 elapsed seconds
Timing for main: time 2016-02-05_13:03:20 on domain   4:     .32471 elapsed seconds
Timing for main: time 2016-02-05_13:03:20 on domain   2:    2.42843 elapsed seconds
Timing for main: time 2016-02-05_13:03:33 on domain   3:     .28236 elapsed seconds
Timing for main: time 2016-02-05_13:03:46 on domain   3:     .27067 elapsed seconds
Timing for main: time 2016-02-05_13:04:00 on domain   3:     .27033 elapsed seconds
Timing for main: time 2016-02-05_13:03:40 on domain   4:     .33788 elapsed seconds
Timing for main: time 2016-02-05_13:04:00 on domain   4:     .32534 elapsed seconds
Timing for main: time 2016-02-05_13:04:00 on domain   2:    2.43942 elapsed seconds
Timing for main: time 2016-02-05_13:04:00 on domain   1:    7.78415 elapsed seconds
Timing for main: time 2016-02-05_13:04:13 on domain   3:     .28182 elapsed seconds
Timing for main: time 2016-02-05_13:04:26 on domain   3:     .27038 elapsed seconds
Timing for main: time 2016-02-05_13:04:40 on domain   3:     .27266 elapsed seconds
Timing for main: time 2016-02-05_13:04:20 on domain   4:     .33701 elapsed seconds
Timing for main: time 2016-02-05_13:04:40 on domain   4:     .32504 elapsed seconds
Timing for main: time 2016-02-05_13:04:40 on domain   2:    2.43969 elapsed seconds
Timing for main: time 2016-02-05_13:04:53 on domain   3:     .28163 elapsed seconds
Timing for main: time 2016-02-05_13:05:06 on domain   3:     .27527 elapsed seconds
Timing for main: time 2016-02-05_13:05:20 on domain   3:     .27043 elapsed seconds
Timing for main: time 2016-02-05_13:05:00 on domain   4:     .35322 elapsed seconds
Timing for main: time 2016-02-05_13:05:20 on domain   4:     .32326 elapsed seconds
Timing for main: time 2016-02-05_13:05:20 on domain   2:    2.44214 elapsed seconds
Timing for main: time 2016-02-05_13:05:33 on domain   3:     .28171 elapsed seconds
Timing for main: time 2016-02-05_13:05:46 on domain   3:     .27060 elapsed seconds
Timing for main: time 2016-02-05_13:06:00 on domain   3:     .27042 elapsed seconds
Timing for main: time 2016-02-05_13:05:40 on domain   4:     .33736 elapsed seconds
Timing for main: time 2016-02-05_13:06:00 on domain   4:     .32449 elapsed seconds
Timing for main: time 2016-02-05_13:06:00 on domain   2:    2.43624 elapsed seconds
Timing for main: time 2016-02-05_13:06:00 on domain   1:    7.80773 elapsed seconds
Timing for main: time 2016-02-05_13:06:13 on domain   3:     .28152 elapsed seconds
Timing for main: time 2016-02-05_13:06:26 on domain   3:     .28349 elapsed seconds
Timing for main: time 2016-02-05_13:06:40 on domain   3:     .27030 elapsed seconds
Timing for main: time 2016-02-05_13:06:20 on domain   4:     .33761 elapsed seconds
Timing for main: time 2016-02-05_13:06:40 on domain   4:     .32803 elapsed seconds
Timing for main: time 2016-02-05_13:06:40 on domain   2:    2.45500 elapsed seconds
Timing for main: time 2016-02-05_13:06:53 on domain   3:     .27692 elapsed seconds
Timing for main: time 2016-02-05_13:07:06 on domain   3:     .27114 elapsed seconds
Timing for main: time 2016-02-05_13:07:20 on domain   3:     .27029 elapsed seconds
Timing for main: time 2016-02-05_13:07:00 on domain   4:     .33696 elapsed seconds
Timing for main: time 2016-02-05_13:07:20 on domain   4:     .32476 elapsed seconds
Timing for main: time 2016-02-05_13:07:20 on domain   2:    2.42193 elapsed seconds
Timing for main: time 2016-02-05_13:07:33 on domain   3:     .27827 elapsed seconds
Timing for main: time 2016-02-05_13:07:46 on domain   3:     .27069 elapsed seconds
Timing for main: time 2016-02-05_13:08:00 on domain   3:     .27042 elapsed seconds
Timing for main: time 2016-02-05_13:07:40 on domain   4:     .33642 elapsed seconds
Timing for main: time 2016-02-05_13:08:00 on domain   4:     .32479 elapsed seconds
Timing for main: time 2016-02-05_13:08:00 on domain   2:    2.42358 elapsed seconds
Timing for main: time 2016-02-05_13:08:00 on domain   1:    7.77847 elapsed seconds
Timing for main: time 2016-02-05_13:08:13 on domain   3:     .28202 elapsed seconds
Timing for main: time 2016-02-05_13:08:26 on domain   3:     .26996 elapsed seconds
Timing for main: time 2016-02-05_13:08:40 on domain   3:     .27615 elapsed seconds
Timing for main: time 2016-02-05_13:08:20 on domain   4:     .33729 elapsed seconds
Timing for main: time 2016-02-05_13:08:40 on domain   4:     .32515 elapsed seconds
Timing for main: time 2016-02-05_13:08:40 on domain   2:    2.44941 elapsed seconds
Timing for main: time 2016-02-05_13:08:53 on domain   3:     .28168 elapsed seconds
Timing for main: time 2016-02-05_13:09:06 on domain   3:     .27050 elapsed seconds
Timing for main: time 2016-02-05_13:09:20 on domain   3:     .27071 elapsed seconds
Timing for main: time 2016-02-05_13:09:00 on domain   4:     .33728 elapsed seconds
Timing for main: time 2016-02-05_13:09:20 on domain   4:     .32642 elapsed seconds
Timing for main: time 2016-02-05_13:09:20 on domain   2:    2.44004 elapsed seconds
Timing for main: time 2016-02-05_13:09:33 on domain   3:     .28139 elapsed seconds
Timing for main: time 2016-02-05_13:09:46 on domain   3:     .27063 elapsed seconds
Timing for main: time 2016-02-05_13:10:00 on domain   3:     .27278 elapsed seconds
Timing for main: time 2016-02-05_13:09:40 on domain   4:     .33716 elapsed seconds
Timing for main: time 2016-02-05_13:10:00 on domain   4:     .33966 elapsed seconds
Timing for main: time 2016-02-05_13:10:00 on domain   2:    2.44046 elapsed seconds
Timing for main: time 2016-02-05_13:10:00 on domain   1:    7.80938 elapsed seconds
Timing for main: time 2016-02-05_13:10:13 on domain   3:     .28206 elapsed seconds
Timing for main: time 2016-02-05_13:10:26 on domain   3:     .27073 elapsed seconds
Timing for main: time 2016-02-05_13:10:40 on domain   3:     .27090 elapsed seconds
Timing for main: time 2016-02-05_13:10:20 on domain   4:     .33837 elapsed seconds
Timing for main: time 2016-02-05_13:10:40 on domain   4:     .32554 elapsed seconds
Timing for main: time 2016-02-05_13:10:40 on domain   2:    2.44121 elapsed seconds
Timing for main: time 2016-02-05_13:10:53 on domain   3:     .28118 elapsed seconds
Timing for main: time 2016-02-05_13:11:06 on domain   3:     .27179 elapsed seconds
Timing for main: time 2016-02-05_13:11:20 on domain   3:     .27086 elapsed seconds
Timing for main: time 2016-02-05_13:11:00 on domain   4:     .33729 elapsed seconds
Timing for main: time 2016-02-05_13:11:20 on domain   4:     .32525 elapsed seconds
Timing for main: time 2016-02-05_13:11:20 on domain   2:    2.42292 elapsed seconds
Timing for main: time 2016-02-05_13:11:33 on domain   3:     .29512 elapsed seconds
Timing for main: time 2016-02-05_13:11:46 on domain   3:     .27099 elapsed seconds
Timing for main: time 2016-02-05_13:12:00 on domain   3:     .27491 elapsed seconds
Timing for main: time 2016-02-05_13:11:40 on domain   4:     .34383 elapsed seconds
Timing for main: time 2016-02-05_13:12:00 on domain   4:     .32517 elapsed seconds
Timing for main: time 2016-02-05_13:12:00 on domain   2:    2.44683 elapsed seconds
Timing for main: time 2016-02-05_13:12:00 on domain   1:    7.80103 elapsed seconds
Timing for main: time 2016-02-05_13:12:13 on domain   3:     .28121 elapsed seconds
Timing for main: time 2016-02-05_13:12:26 on domain   3:     .27159 elapsed seconds
Timing for main: time 2016-02-05_13:12:40 on domain   3:     .27058 elapsed seconds
Timing for main: time 2016-02-05_13:12:20 on domain   4:     .33720 elapsed seconds
Timing for main: time 2016-02-05_13:12:40 on domain   4:     .32801 elapsed seconds
Timing for main: time 2016-02-05_13:12:40 on domain   2:    2.44373 elapsed seconds
Timing for main: time 2016-02-05_13:12:53 on domain   3:     .28171 elapsed seconds
Timing for main: time 2016-02-05_13:13:06 on domain   3:     .27094 elapsed seconds
Timing for main: time 2016-02-05_13:13:20 on domain   3:     .29181 elapsed seconds
Timing for main: time 2016-02-05_13:13:00 on domain   4:     .33674 elapsed seconds
Timing for main: time 2016-02-05_13:13:20 on domain   4:     .32492 elapsed seconds
Timing for main: time 2016-02-05_13:13:20 on domain   2:    2.44628 elapsed seconds
Timing for main: time 2016-02-05_13:13:33 on domain   3:     .28107 elapsed seconds
Timing for main: time 2016-02-05_13:13:46 on domain   3:     .27021 elapsed seconds
Timing for main: time 2016-02-05_13:14:00 on domain   3:     .27097 elapsed seconds
Timing for main: time 2016-02-05_13:13:40 on domain   4:     .33836 elapsed seconds
Timing for main: time 2016-02-05_13:14:00 on domain   4:     .32438 elapsed seconds
Timing for main: time 2016-02-05_13:14:00 on domain   2:    2.42381 elapsed seconds
Timing for main: time 2016-02-05_13:14:00 on domain   1:    7.79200 elapsed seconds
Timing for main: time 2016-02-05_13:14:13 on domain   3:     .28113 elapsed seconds
Timing for main: time 2016-02-05_13:14:26 on domain   3:     .26992 elapsed seconds
Timing for main: time 2016-02-05_13:14:40 on domain   3:     .27344 elapsed seconds
Timing for main: time 2016-02-05_13:14:20 on domain   4:     .33800 elapsed seconds
Timing for main: time 2016-02-05_13:14:40 on domain   4:     .32501 elapsed seconds
Timing for main: time 2016-02-05_13:14:40 on domain   2:    2.45872 elapsed seconds
Timing for main: time 2016-02-05_13:14:53 on domain   3:     .28159 elapsed seconds
Timing for main: time 2016-02-05_13:15:06 on domain   3:     .27179 elapsed seconds
Timing for main: time 2016-02-05_13:15:20 on domain   3:     .27040 elapsed seconds
Timing for main: time 2016-02-05_13:15:00 on domain   4:     .35182 elapsed seconds
Timing for main: time 2016-02-05_13:15:20 on domain   4:     .32485 elapsed seconds
Timing for main: time 2016-02-05_13:15:20 on domain   2:    2.43874 elapsed seconds
Timing for main: time 2016-02-05_13:15:33 on domain   3:     .28113 elapsed seconds
Timing for main: time 2016-02-05_13:15:46 on domain   3:     .27070 elapsed seconds
Timing for main: time 2016-02-05_13:16:00 on domain   3:     .27060 elapsed seconds
Timing for main: time 2016-02-05_13:15:40 on domain   4:     .34219 elapsed seconds
Timing for main: time 2016-02-05_13:16:00 on domain   4:     .32478 elapsed seconds
Timing for main: time 2016-02-05_13:16:00 on domain   2:    2.42859 elapsed seconds
Timing for main: time 2016-02-05_13:16:00 on domain   1:    7.80384 elapsed seconds
Timing for main: time 2016-02-05_13:16:13 on domain   3:     .28131 elapsed seconds
Timing for main: time 2016-02-05_13:16:26 on domain   3:     .27097 elapsed seconds
Timing for main: time 2016-02-05_13:16:40 on domain   3:     .28426 elapsed seconds
Timing for main: time 2016-02-05_13:16:20 on domain   4:     .33652 elapsed seconds
Timing for main: time 2016-02-05_13:16:40 on domain   4:     .32478 elapsed seconds
Timing for main: time 2016-02-05_13:16:40 on domain   2:    2.45271 elapsed seconds
Timing for main: time 2016-02-05_13:16:53 on domain   3:     .28042 elapsed seconds
Timing for main: time 2016-02-05_13:17:06 on domain   3:     .27369 elapsed seconds
Timing for main: time 2016-02-05_13:17:20 on domain   3:     .27034 elapsed seconds
Timing for main: time 2016-02-05_13:17:00 on domain   4:     .33700 elapsed seconds
Timing for main: time 2016-02-05_13:17:20 on domain   4:     .32449 elapsed seconds
Timing for main: time 2016-02-05_13:17:20 on domain   2:    2.42361 elapsed seconds
Timing for main: time 2016-02-05_13:17:33 on domain   3:     .28143 elapsed seconds
[...]
Timing for main: time 2016-02-05_17:36:00 on domain   2:    2.44795 elapsed seconds
Timing for main: time 2016-02-05_17:36:00 on domain   1:    7.84697 elapsed seconds
Timing for main: time 2016-02-05_17:36:13 on domain   3:     .28384 elapsed seconds
Timing for main: time 2016-02-05_17:36:26 on domain   3:     .27150 elapsed seconds
Timing for main: time 2016-02-05_17:36:40 on domain   3:     .27213 elapsed seconds
Timing for main: time 2016-02-05_17:36:20 on domain   4:     .33743 elapsed seconds
Timing for main: time 2016-02-05_17:36:40 on domain   4:     .32580 elapsed seconds
Timing for main: time 2016-02-05_17:36:40 on domain   2:    2.44665 elapsed seconds
Timing for main: time 2016-02-05_17:36:53 on domain   3:     .28350 elapsed seconds
Timing for main: time 2016-02-05_17:37:06 on domain   3:     .27224 elapsed seconds
Timing for main: time 2016-02-05_17:37:20 on domain   3:     .28436 elapsed seconds
Timing for main: time 2016-02-05_17:37:00 on domain   4:     .33635 elapsed seconds
Timing for main: time 2016-02-05_17:37:20 on domain   4:     .32592 elapsed seconds
Timing for main: time 2016-02-05_17:37:20 on domain   2:    2.44519 elapsed seconds
Timing for main: time 2016-02-05_17:37:33 on domain   3:     .28328 elapsed seconds
Timing for main: time 2016-02-05_17:37:46 on domain   3:     .27210 elapsed seconds
Timing for main: time 2016-02-05_17:38:00 on domain   3:     .27388 elapsed seconds
Timing for main: time 2016-02-05_17:37:40 on domain   4:     .33742 elapsed seconds
Timing for main: time 2016-02-05_17:38:00 on domain   4:     .32755 elapsed seconds
Timing for main: time 2016-02-05_17:38:00 on domain   2:    2.43599 elapsed seconds
Timing for main: time 2016-02-05_17:38:00 on domain   1:    7.81179 elapsed seconds
Timing for main: time 2016-02-05_17:38:13 on domain   3:     .28339 elapsed seconds
Timing for main: time 2016-02-05_17:38:26 on domain   3:     .27277 elapsed seconds
Timing for main: time 2016-02-05_17:38:40 on domain   3:     .27202 elapsed seconds
Timing for main: time 2016-02-05_17:38:20 on domain   4:     .33727 elapsed seconds
Timing for main: time 2016-02-05_17:38:40 on domain   4:     .32548 elapsed seconds
Timing for main: time 2016-02-05_17:38:40 on domain   2:    2.44711 elapsed seconds
Timing for main: time 2016-02-05_17:38:53 on domain   3:     .28185 elapsed seconds
Timing for main: time 2016-02-05_17:39:06 on domain   3:     .27261 elapsed seconds
Timing for main: time 2016-02-05_17:39:20 on domain   3:     .27240 elapsed seconds
Timing for main: time 2016-02-05_17:39:00 on domain   4:     .33444 elapsed seconds
Timing for main: time 2016-02-05_17:39:20 on domain   4:     .32633 elapsed seconds
Timing for main: time 2016-02-05_17:39:20 on domain   2:    2.43218 elapsed seconds
Timing for main: time 2016-02-05_17:39:33 on domain   3:     .28464 elapsed seconds
Timing for main: time 2016-02-05_17:39:46 on domain   3:     .27262 elapsed seconds
Timing for main: time 2016-02-05_17:40:00 on domain   3:     .27338 elapsed seconds
Timing for main: time 2016-02-05_17:39:40 on domain   4:     .35120 elapsed seconds
Timing for main: time 2016-02-05_17:40:00 on domain   4:     .33867 elapsed seconds
Timing for main: time 2016-02-05_17:40:00 on domain   2:    2.46116 elapsed seconds
Timing for main: time 2016-02-05_17:40:00 on domain   1:    7.82368 elapsed seconds
Timing for main: time 2016-02-05_17:40:13 on domain   3:     .28385 elapsed seconds
Timing for main: time 2016-02-05_17:40:26 on domain   3:     .27244 elapsed seconds
Timing for main: time 2016-02-05_17:40:40 on domain   3:     .27266 elapsed seconds
Timing for main: time 2016-02-05_17:40:20 on domain   4:     .33642 elapsed seconds
Timing for main: time 2016-02-05_17:40:40 on domain   4:     .32642 elapsed seconds
Timing for main: time 2016-02-05_17:40:40 on domain   2:    2.44709 elapsed seconds
Timing for main: time 2016-02-05_17:40:53 on domain   3:     .28411 elapsed seconds
Timing for main: time 2016-02-05_17:41:06 on domain   3:     .27234 elapsed seconds
Timing for main: time 2016-02-05_17:41:20 on domain   3:     .27217 elapsed seconds
Timing for main: time 2016-02-05_17:41:00 on domain   4:     .33615 elapsed seconds
Timing for main: time 2016-02-05_17:41:20 on domain   4:     .32616 elapsed seconds
Timing for main: time 2016-02-05_17:41:20 on domain   2:    2.44793 elapsed seconds
Timing for main: time 2016-02-05_17:41:33 on domain   3:     .28388 elapsed seconds
Timing for main: time 2016-02-05_17:41:46 on domain   3:     .27235 elapsed seconds
Timing for main: time 2016-02-05_17:42:00 on domain   3:     .27286 elapsed seconds
Timing for main: time 2016-02-05_17:41:40 on domain   4:     .33610 elapsed seconds
Timing for main: time 2016-02-05_17:42:00 on domain   4:     .32653 elapsed seconds
Timing for main: time 2016-02-05_17:42:00 on domain   2:    2.43313 elapsed seconds
Timing for main: time 2016-02-05_17:42:00 on domain   1:    7.82558 elapsed seconds
Timing for main: time 2016-02-05_17:42:13 on domain   3:     .28589 elapsed seconds
Timing for main: time 2016-02-05_17:42:26 on domain   3:     .28498 elapsed seconds
Timing for main: time 2016-02-05_17:42:40 on domain   3:     .27113 elapsed seconds
Timing for main: time 2016-02-05_17:42:20 on domain   4:     .33824 elapsed seconds
Timing for main: time 2016-02-05_17:42:40 on domain   4:     .32613 elapsed seconds
Timing for main: time 2016-02-05_17:42:40 on domain   2:    2.46471 elapsed seconds
Timing for main: time 2016-02-05_17:42:53 on domain   3:     .28401 elapsed seconds
Timing for main: time 2016-02-05_17:43:06 on domain   3:     .27392 elapsed seconds
Timing for main: time 2016-02-05_17:43:20 on domain   3:     .27205 elapsed seconds
Timing for main: time 2016-02-05_17:43:00 on domain   4:     .33658 elapsed seconds
Timing for main: time 2016-02-05_17:43:20 on domain   4:     .32584 elapsed seconds
Timing for main: time 2016-02-05_17:43:20 on domain   2:    2.43311 elapsed seconds
Timing for main: time 2016-02-05_17:43:33 on domain   3:     .28544 elapsed seconds
Timing for main: time 2016-02-05_17:43:46 on domain   3:     .27248 elapsed seconds
Timing for main: time 2016-02-05_17:44:00 on domain   3:     .27267 elapsed seconds
Timing for main: time 2016-02-05_17:43:40 on domain   4:     .33600 elapsed seconds
Timing for main: time 2016-02-05_17:44:00 on domain   4:     .33230 elapsed seconds
Timing for main: time 2016-02-05_17:44:00 on domain   2:    2.44044 elapsed seconds
Timing for main: time 2016-02-05_17:44:00 on domain   1:    7.82136 elapsed seconds
Timing for main: time 2016-02-05_17:44:13 on domain   3:     .34692 elapsed seconds
Timing for main: time 2016-02-05_17:44:26 on domain   3:     .27444 elapsed seconds
Timing for main: time 2016-02-05_17:44:40 on domain   3:     .27260 elapsed seconds
Timing for main: time 2016-02-05_17:44:20 on domain   4:     .33667 elapsed seconds
Timing for main: time 2016-02-05_17:44:40 on domain   4:     .32609 elapsed seconds
Timing for main: time 2016-02-05_17:44:40 on domain   2:    2.51293 elapsed seconds
Timing for main: time 2016-02-05_17:44:53 on domain   3:     .28453 elapsed seconds
Timing for main: time 2016-02-05_17:45:06 on domain   3:     .27568 elapsed seconds
Timing for main: time 2016-02-05_17:45:20 on domain   3:     .27230 elapsed seconds
Timing for main: time 2016-02-05_17:45:00 on domain   4:     .35276 elapsed seconds
Timing for main: time 2016-02-05_17:45:20 on domain   4:     .32590 elapsed seconds
Timing for main: time 2016-02-05_17:45:20 on domain   2:    2.45221 elapsed seconds
Timing for main: time 2016-02-05_17:45:33 on domain   3:     .28435 elapsed seconds
Timing for main: time 2016-02-05_17:45:46 on domain   3:     .27352 elapsed seconds
Timing for main: time 2016-02-05_17:46:00 on domain   3:     .27298 elapsed seconds
Timing for main: time 2016-02-05_17:45:40 on domain   4:     .33657 elapsed seconds
Timing for main: time 2016-02-05_17:46:00 on domain   4:     .32609 elapsed seconds
Timing for main: time 2016-02-05_17:46:00 on domain   2:    2.43485 elapsed seconds
Timing for main: time 2016-02-05_17:46:00 on domain   1:    7.88295 elapsed seconds
Timing for main: time 2016-02-05_17:46:13 on domain   3:     .28433 elapsed seconds
Timing for main: time 2016-02-05_17:46:26 on domain   3:     .27214 elapsed seconds
Timing for main: time 2016-02-05_17:46:40 on domain   3:     .27238 elapsed seconds
Timing for main: time 2016-02-05_17:46:20 on domain   4:     .33632 elapsed seconds
Timing for main: time 2016-02-05_17:46:40 on domain   4:     .32630 elapsed seconds
Timing for main: time 2016-02-05_17:46:40 on domain   2:    2.46244 elapsed seconds
Timing for main: time 2016-02-05_17:46:53 on domain   3:     .28424 elapsed seconds
Timing for main: time 2016-02-05_17:47:06 on domain   3:     .34792 elapsed seconds
Timing for main: time 2016-02-05_17:47:20 on domain   3:     .28672 elapsed seconds
Timing for main: time 2016-02-05_17:47:00 on domain   4:     .33634 elapsed seconds
Timing for main: time 2016-02-05_17:47:20 on domain   4:     .32853 elapsed seconds
Timing for main: time 2016-02-05_17:47:20 on domain   2:    2.52185 elapsed seconds
Timing for main: time 2016-02-05_17:47:33 on domain   3:     .30188 elapsed seconds
Timing for main: time 2016-02-05_17:47:46 on domain   3:     .27306 elapsed seconds
Timing for main: time 2016-02-05_17:48:00 on domain   3:     .27268 elapsed seconds
Timing for main: time 2016-02-05_17:47:40 on domain   4:     .33919 elapsed seconds
Timing for main: time 2016-02-05_17:48:00 on domain   4:     .32630 elapsed seconds
Timing for main: time 2016-02-05_17:48:00 on domain   2:    2.45393 elapsed seconds
Timing for main: time 2016-02-05_17:48:00 on domain   1:    7.93562 elapsed seconds
Timing for main: time 2016-02-05_17:48:13 on domain   3:     .28489 elapsed seconds
Timing for main: time 2016-02-05_17:48:26 on domain   3:     .27267 elapsed seconds
Timing for main: time 2016-02-05_17:48:40 on domain   3:     .27324 elapsed seconds
Timing for main: time 2016-02-05_17:48:20 on domain   4:     .41075 elapsed seconds
Timing for main: time 2016-02-05_17:48:40 on domain   4:     .34408 elapsed seconds
Timing for main: time 2016-02-05_17:48:40 on domain   2:    2.54028 elapsed seconds
Timing for main: time 2016-02-05_17:48:53 on domain   3:     .28464 elapsed seconds
Timing for main: time 2016-02-05_17:49:06 on domain   3:     .27350 elapsed seconds
Timing for main: time 2016-02-05_17:49:20 on domain   3:     .27294 elapsed seconds
Timing for main: time 2016-02-05_17:49:00 on domain   4:     .33716 elapsed seconds
Timing for main: time 2016-02-05_17:49:20 on domain   4:     .32543 elapsed seconds
Timing for main: time 2016-02-05_17:49:20 on domain   2:    2.43492 elapsed seconds
Timing for main: time 2016-02-05_17:49:33 on domain   3:     .28477 elapsed seconds
Timing for main: time 2016-02-05_17:49:46 on domain   3:     .27310 elapsed seconds
Timing for main: time 2016-02-05_17:50:00 on domain   3:     .27266 elapsed seconds
Timing for main: time 2016-02-05_17:49:40 on domain   4:     .33826 elapsed seconds
Timing for main: time 2016-02-05_17:50:00 on domain   4:     .34454 elapsed seconds
Timing for main: time 2016-02-05_17:50:00 on domain   2:    2.45533 elapsed seconds
Timing for main: time 2016-02-05_17:50:00 on domain   1:    7.91380 elapsed seconds
Timing for main: time 2016-02-05_17:50:13 on domain   3:     .28454 elapsed seconds
Timing for main: time 2016-02-05_17:50:26 on domain   3:     .27284 elapsed seconds
Timing for main: time 2016-02-05_17:50:40 on domain   3:     .27270 elapsed seconds
Timing for main: time 2016-02-05_17:50:20 on domain   4:     .34214 elapsed seconds
Timing for main: time 2016-02-05_17:50:40 on domain   4:     .32767 elapsed seconds
Timing for main: time 2016-02-05_17:50:40 on domain   2:    2.45502 elapsed seconds
Timing for main: time 2016-02-05_17:50:53 on domain   3:     .28503 elapsed seconds
Timing for main: time 2016-02-05_17:51:06 on domain   3:     .27266 elapsed seconds
Timing for main: time 2016-02-05_17:51:20 on domain   3:     .27330 elapsed seconds
Timing for main: time 2016-02-05_17:51:00 on domain   4:     .33696 elapsed seconds
Timing for main: time 2016-02-05_17:51:20 on domain   4:     .32796 elapsed seconds
Timing for main: time 2016-02-05_17:51:20 on domain   2:    2.43688 elapsed seconds
Timing for main: time 2016-02-05_17:51:33 on domain   3:     .28484 elapsed seconds
Timing for main: time 2016-02-05_17:51:46 on domain   3:     .27310 elapsed seconds
Timing for main: time 2016-02-05_17:52:00 on domain   3:     .27259 elapsed seconds
Timing for main: time 2016-02-05_17:51:40 on domain   4:     .33602 elapsed seconds
Timing for main: time 2016-02-05_17:52:00 on domain   4:     .32570 elapsed seconds
Timing for main: time 2016-02-05_17:52:00 on domain   2:    2.44800 elapsed seconds
Timing for main: time 2016-02-05_17:52:00 on domain   1:    7.82287 elapsed seconds
Timing for main: time 2016-02-05_17:52:13 on domain   3:     .28446 elapsed seconds
Timing for main: time 2016-02-05_17:52:26 on domain   3:     .27257 elapsed seconds
Timing for main: time 2016-02-05_17:52:40 on domain   3:     .29195 elapsed seconds
Timing for main: time 2016-02-05_17:52:20 on domain   4:     .33804 elapsed seconds
Timing for main: time 2016-02-05_17:52:40 on domain   4:     .32462 elapsed seconds
Timing for main: time 2016-02-05_17:52:40 on domain   2:    2.46382 elapsed seconds
Timing for main: time 2016-02-05_17:52:53 on domain   3:     .28513 elapsed seconds
Timing for main: time 2016-02-05_17:53:06 on domain   3:     .27281 elapsed seconds
Timing for main: time 2016-02-05_17:53:20 on domain   3:     .27247 elapsed seconds
Timing for main: time 2016-02-05_17:53:00 on domain   4:     .39803 elapsed seconds
Timing for main: time 2016-02-05_17:53:20 on domain   4:     .32518 elapsed seconds
Timing for main: time 2016-02-05_17:53:20 on domain   2:    2.57111 elapsed seconds
Timing for main: time 2016-02-05_17:53:33 on domain   3:     .28456 elapsed seconds
Timing for main: time 2016-02-05_17:53:46 on domain   3:     .27311 elapsed seconds
Timing for main: time 2016-02-05_17:54:00 on domain   3:     .36932 elapsed seconds
Timing for main: time 2016-02-05_17:53:40 on domain   4:     .33646 elapsed seconds
Timing for main: time 2016-02-05_17:54:00 on domain   4:     .32593 elapsed seconds
Timing for main: time 2016-02-05_17:54:00 on domain   2:    2.53021 elapsed seconds
Timing for main: time 2016-02-05_17:54:00 on domain   1:    8.06347 elapsed seconds
Timing for main: time 2016-02-05_17:54:13 on domain   3:     .28490 elapsed seconds
Timing for main: time 2016-02-05_17:54:26 on domain   3:     .27860 elapsed seconds
Timing for main: time 2016-02-05_17:54:40 on domain   3:     .27300 elapsed seconds
Timing for main: time 2016-02-05_17:54:20 on domain   4:     .33769 elapsed seconds
Timing for main: time 2016-02-05_17:54:40 on domain   4:     .32597 elapsed seconds
Timing for main: time 2016-02-05_17:54:40 on domain   2:    2.45375 elapsed seconds
Timing for main: time 2016-02-05_17:54:53 on domain   3:     .28444 elapsed seconds
Timing for main: time 2016-02-05_17:55:06 on domain   3:     .27327 elapsed seconds
Timing for main: time 2016-02-05_17:55:20 on domain   3:     .27305 elapsed seconds
Timing for main: time 2016-02-05_17:55:00 on domain   4:     .35126 elapsed seconds
Timing for main: time 2016-02-05_17:55:20 on domain   4:     .32602 elapsed seconds
Timing for main: time 2016-02-05_17:55:20 on domain   2:    2.44931 elapsed seconds
Timing for main: time 2016-02-05_17:55:33 on domain   3:     .28459 elapsed seconds
Timing for main: time 2016-02-05_17:55:46 on domain   3:     .27337 elapsed seconds
Timing for main: time 2016-02-05_17:56:00 on domain   3:     .27283 elapsed seconds
Timing for main: time 2016-02-05_17:55:40 on domain   4:     .33669 elapsed seconds
Timing for main: time 2016-02-05_17:56:00 on domain   4:     .32594 elapsed seconds
Timing for main: time 2016-02-05_17:56:00 on domain   2:    2.43430 elapsed seconds
Timing for main: time 2016-02-05_17:56:00 on domain   1:    7.82247 elapsed seconds
Timing for main: time 2016-02-05_17:56:13 on domain   3:     .28463 elapsed seconds
Timing for main: time 2016-02-05_17:56:26 on domain   3:     .27482 elapsed seconds
Timing for main: time 2016-02-05_17:56:40 on domain   3:     .27283 elapsed seconds
Timing for main: time 2016-02-05_17:56:20 on domain   4:     .33705 elapsed seconds
Timing for main: time 2016-02-05_17:56:40 on domain   4:     .32568 elapsed seconds
Timing for main: time 2016-02-05_17:56:40 on domain   2:    2.44985 elapsed seconds
Timing for main: time 2016-02-05_17:56:53 on domain   3:     .28476 elapsed seconds
Timing for main: time 2016-02-05_17:57:06 on domain   3:     .27307 elapsed seconds
Timing for main: time 2016-02-05_17:57:20 on domain   3:     .27309 elapsed seconds
Timing for main: time 2016-02-05_17:57:00 on domain   4:     .33618 elapsed seconds
Timing for main: time 2016-02-05_17:57:20 on domain   4:     .32690 elapsed seconds
Timing for main: time 2016-02-05_17:57:20 on domain   2:    2.45117 elapsed seconds
Timing for main: time 2016-02-05_17:57:33 on domain   3:     .28518 elapsed seconds
Timing for main: time 2016-02-05_17:57:46 on domain   3:     .28519 elapsed seconds
Timing for main: time 2016-02-05_17:58:00 on domain   3:     .27422 elapsed seconds
Timing for main: time 2016-02-05_17:57:40 on domain   4:     .33754 elapsed seconds
Timing for main: time 2016-02-05_17:58:00 on domain   4:     .32589 elapsed seconds
Timing for main: time 2016-02-05_17:58:00 on domain   2:    2.44919 elapsed seconds
Timing for main: time 2016-02-05_17:58:00 on domain   1:    7.83344 elapsed seconds
  photolysis_driver: called for domain  1
Timing for main: time 2016-02-05_17:58:13 on domain   3:     .28474 elapsed seconds
Timing for main: time 2016-02-05_17:58:26 on domain   3:     .27242 elapsed seconds
Timing for main: time 2016-02-05_17:58:40 on domain   3:     .27358 elapsed seconds
Timing for main: time 2016-02-05_17:58:20 on domain   4:     .33626 elapsed seconds
Timing for main: time 2016-02-05_17:58:40 on domain   4:     .32660 elapsed seconds
Timing for main: time 2016-02-05_17:58:40 on domain   2:    2.44808 elapsed seconds
Timing for main: time 2016-02-05_17:58:53 on domain   3:     .28510 elapsed seconds
Timing for main: time 2016-02-05_17:59:06 on domain   3:     .27294 elapsed seconds
Timing for main: time 2016-02-05_17:59:20 on domain   3:     .27347 elapsed seconds
Timing for main: time 2016-02-05_17:59:00 on domain   4:     .33674 elapsed seconds
Timing for main: time 2016-02-05_17:59:20 on domain   4:     .32607 elapsed seconds
Timing for main: time 2016-02-05_17:59:20 on domain   2:    2.43488 elapsed seconds
  photolysis_driver: called for domain  2
Timing for main: time 2016-02-05_17:59:33 on domain   3:     .28252 elapsed seconds
Timing for main: time 2016-02-05_17:59:46 on domain   3:     .27528 elapsed seconds
  photolysis_driver: called for domain  3
Timing for main: time 2016-02-05_18:00:00 on domain   3:    1.66006 elapsed seconds
Timing for Writing wrfout_d03_2016-02-05_18:00:00 for domain        3:    1.60239 elapsed seconds
Timing for main: time 2016-02-05_17:59:40 on domain   4:     .36578 elapsed seconds
  photolysis_driver: called for domain  4
Timing for main: time 2016-02-05_18:00:00 on domain   4:    1.95559 elapsed seconds
Timing for Writing wrfout_d04_2016-02-05_18:00:00 for domain        4:    1.82243 elapsed seconds
Timing for main: time 2016-02-05_18:00:00 on domain   2:   10.63558 elapsed seconds
Timing for Writing wrfout_d02_2016-02-05_18:00:00 for domain        2:    3.61984 elapsed seconds
Timing for main: time 2016-02-05_18:00:00 on domain   1:   20.53616 elapsed seconds
Timing for Writing wrfout_d01_2016-02-05_18:00:00 for domain        1:    3.27025 elapsed seconds
 d01 2016-02-05_18:00:00 wrf: SUCCESS COMPLETE WRF
