taskid: 0 hostname: p10a51.pbm.ihost.com
  Ntasks in X  10 , ntasks in Y  14
 Setting blank km_opt entries to domain #1 values.
  --> The km_opt entry in the namelist.input is now max_domains.
 Setting blank diff_opt entries to domain #1 values.
  --> The diff_opt entry in the namelist.input is now max_domains.
 --- WARNING: traj_opt is zero, but num_traj is not zero; setting num_traj to zero.
 --- NOTE: hypsometric_opt is 2, setting adjust_heights = F
 --- NOTE: sst_update is 0, setting io_form_auxinput4 = 0 and auxinput4_interval = 0 for all domains
 --- NOTE: sst_update is 0, setting io_form_auxinput4 = 0 and auxinput4_interval = 0 for all domains
 --- NOTE: sst_update is 0, setting io_form_auxinput4 = 0 and auxinput4_interval = 0 for all domains
 --- NOTE: sst_update is 0, setting io_form_auxinput4 = 0 and auxinput4_interval = 0 for all domains
 --- NOTE: grid_fdda is 0 for domain      1, setting gfdda interval and ending time to 0 for that domain.
 --- NOTE: both grid_sfdda and pxlsm_soil_nudge are 0 for domain      1, setting sgfdda interval and ending time to 0 for that domain.
 --- NOTE: obs_nudge_opt is 0 for domain      1, setting obs nudging interval and ending time to 0 for that domain.
 --- NOTE: grid_fdda is 0 for domain      2, setting gfdda interval and ending time to 0 for that domain.
 --- NOTE: both grid_sfdda and pxlsm_soil_nudge are 0 for domain      2, setting sgfdda interval and ending time to 0 for that domain.
 --- NOTE: obs_nudge_opt is 0 for domain      2, setting obs nudging interval and ending time to 0 for that domain.
 --- NOTE: grid_fdda is 0 for domain      3, setting gfdda interval and ending time to 0 for that domain.
 --- NOTE: both grid_sfdda and pxlsm_soil_nudge are 0 for domain      3, setting sgfdda interval and ending time to 0 for that domain.
 --- NOTE: obs_nudge_opt is 0 for domain      3, setting obs nudging interval and ending time to 0 for that domain.
 --- NOTE: grid_fdda is 0 for domain      4, setting gfdda interval and ending time to 0 for that domain.
 --- NOTE: both grid_sfdda and pxlsm_soil_nudge are 0 for domain      4, setting sgfdda interval and ending time to 0 for that domain.
 --- NOTE: obs_nudge_opt is 0 for domain      4, setting obs nudging interval and ending time to 0 for that domain.
 bl_pbl_physics /= 4, implies mfshconv must be 0, resetting
 --- NOTE: num_soil_layers has been set to      4
 WRF V3.6 MODEL
  *************************************
  Parent domain
  ids,ide,jds,jde  1 271 1 181
  ims,ime,jms,jme  -4 34 -4 20
  ips,ipe,jps,jpe  1 27 1 13
  *************************************
 DYNAMICS OPTION: Eulerian Mass Coordinate
    alloc_space_field: domain  1 ,  98992808  bytes allocated
   med_initialdata_input: calling input_input
Timing for processing wrfinput file (stream 0) for domain        1:    4.14554 elapsed seconds
 INPUT LandUse = "USGS"
  LANDUSE TYPE = "USGS" FOUND 33  CATEGORIES 2  SEASONS WATER CATEGORY =  16  SNOW CATEGORY =  24
 INITIALIZE THREE Noah LSM RELATED TABLES
  LANDUSE TYPE = USGS FOUND 27  CATEGORIES
  INPUT SOIL TEXTURE CLASSIFICATION = STAS
  SOIL TEXTURE CLASSIFICATION = STAS FOUND 19  CATEGORIES
 *********************************************************************
 *             PROGRAM:WRF/CHEM V3.6 MODEL
 *                                                                   *
 *    PLEASE REPORT ANY BUGS TO WRF/CHEM HELP at                     *
 *                                                                   *
 *              wrfchemhelp.gsd@noaa.gov                             *
 *                                                                   *
 *********************************************************************
 WARNING: dust option 1 currently works only with the GOCART aerosol option.
 WARNING: sea salt option 1 currently works only with the GOCART aerosol option.
  *************************************
  Nesting domain
  ids,ide,jds,jde  1 361 1 253
  ims,ime,jms,jme  -4 48 -4 30
  ips,ipe,jps,jpe  1 36 1 18
  INTERMEDIATE domain
  ids,ide,jds,jde  74 199 47 136
  ims,ime,jms,jme  69 97 42 64
  ips,ipe,jps,jpe  72 87 45 54
  *************************************
 d01 2016-02-05_12:00:00  alloc_space_field: domain  2 ,  183267860  bytes allocated
 d01 2016-02-05_12:00:00  alloc_space_field: domain  2 ,  8401532  bytes allocated
 d01 2016-02-05_12:00:00 *** Initializing nest domain # 2 from an input file. ***
 d01 2016-02-05_12:00:00 med_initialdata_input: calling input_input
Timing for processing wrfinput file (stream 0) for domain        2:    7.38103 elapsed seconds
 INPUT LandUse = "USGS"
  LANDUSE TYPE = "USGS" FOUND 33  CATEGORIES 2  SEASONS WATER CATEGORY =  16  SNOW CATEGORY =  24
 INITIALIZE THREE Noah LSM RELATED TABLES
  LANDUSE TYPE = USGS FOUND 27  CATEGORIES
  INPUT SOIL TEXTURE CLASSIFICATION = STAS
  SOIL TEXTURE CLASSIFICATION = STAS FOUND 19  CATEGORIES
 *********************************************************************
 *             PROGRAM:WRF/CHEM V3.6 MODEL
 *                                                                   *
 *    PLEASE REPORT ANY BUGS TO WRF/CHEM HELP at                     *
 *                                                                   *
 *              wrfchemhelp.gsd@noaa.gov                             *
 *                                                                   *
 *********************************************************************
 WARNING: dust option 1 currently works only with the GOCART aerosol option.
 WARNING: sea salt option 1 currently works only with the GOCART aerosol option.
 INPUT LandUse = "USGS"
  LANDUSE TYPE = "USGS" FOUND 33  CATEGORIES 2  SEASONS WATER CATEGORY =  16  SNOW CATEGORY =  24
 INITIALIZE THREE Noah LSM RELATED TABLES
  LANDUSE TYPE = USGS FOUND 27  CATEGORIES
  INPUT SOIL TEXTURE CLASSIFICATION = STAS
  SOIL TEXTURE CLASSIFICATION = STAS FOUND 19  CATEGORIES
 *********************************************************************
 *             PROGRAM:WRF/CHEM V3.6 MODEL
 *                                                                   *
 *    PLEASE REPORT ANY BUGS TO WRF/CHEM HELP at                     *
 *                                                                   *
 *              wrfchemhelp.gsd@noaa.gov                             *
 *                                                                   *
 *********************************************************************
 WARNING: dust option 1 currently works only with the GOCART aerosol option.
 WARNING: sea salt option 1 currently works only with the GOCART aerosol option.
 INPUT LandUse = "USGS"
  LANDUSE TYPE = "USGS" FOUND 33  CATEGORIES 2  SEASONS WATER CATEGORY =  16  SNOW CATEGORY =  24
 INITIALIZE THREE Noah LSM RELATED TABLES
  LANDUSE TYPE = USGS FOUND 27  CATEGORIES
  INPUT SOIL TEXTURE CLASSIFICATION = STAS
  SOIL TEXTURE CLASSIFICATION = STAS FOUND 19  CATEGORIES
 *********************************************************************
 *             PROGRAM:WRF/CHEM V3.6 MODEL
 *                                                                   *
 *    PLEASE REPORT ANY BUGS TO WRF/CHEM HELP at                     *
 *                                                                   *
 *              wrfchemhelp.gsd@noaa.gov                             *
 *                                                                   *
 *********************************************************************
 WARNING: dust option 1 currently works only with the GOCART aerosol option.
 WARNING: sea salt option 1 currently works only with the GOCART aerosol option.
Timing for Writing wrfout_d01_2016-02-05_12:00:00 for domain        1:    1.39990 elapsed seconds
  mediation_integrate: med_read_wrf_chem_emissions: Open file wrfchemi_12z_d01
  HOURLY EMISSIONS UPDATE TIME         .0        .0
 mediation_integrate: med_read_wrf_chem_emissions: Read emissions for time 2016-02-05_12:00:00
 **WARNING** Time in input file not being checked **WARNING**
Timing for processing lateral boundary for domain        1:    3.12186 elapsed seconds
  Tile Strategy is not specified. Assuming 1D-Y
 WRF TILE   1 IS      1 IE     27 JS      1 JE     13
 WRF NUMBER OF TILES =   1
  photolysis_driver: called for domain  1
  *************************************
  Nesting domain
  ids,ide,jds,jde  1 307 1 241
  ims,ime,jms,jme  -4 42 -4 30
  ips,ipe,jps,jpe  1 31 1 18
  INTERMEDIATE domain
  ids,ide,jds,jde  124 231 35 120
  ims,ime,jms,jme  119 145 30 52
  ips,ipe,jps,jpe  122 135 33 42
  *************************************
 d02 2016-02-05_12:00:00  alloc_space_field: domain  3 ,  163105532  bytes allocated
 d02 2016-02-05_12:00:00  alloc_space_field: domain  3 ,  7822116  bytes allocated
 d02 2016-02-05_12:00:00 *** Initializing nest domain # 3 from an input file. ***
 d02 2016-02-05_12:00:00 med_initialdata_input: calling input_input
Timing for processing wrfinput file (stream 0) for domain        3:    5.87109 elapsed seconds
 INPUT LandUse = "USGS"
  LANDUSE TYPE = "USGS" FOUND 33  CATEGORIES 2  SEASONS WATER CATEGORY =  16  SNOW CATEGORY =  24
 INITIALIZE THREE Noah LSM RELATED TABLES
  LANDUSE TYPE = USGS FOUND 27  CATEGORIES
  INPUT SOIL TEXTURE CLASSIFICATION = STAS
  SOIL TEXTURE CLASSIFICATION = STAS FOUND 19  CATEGORIES
 *********************************************************************
 *             PROGRAM:WRF/CHEM V3.6 MODEL
 *                                                                   *
 *    PLEASE REPORT ANY BUGS TO WRF/CHEM HELP at                     *
 *                                                                   *
 *              wrfchemhelp.gsd@noaa.gov                             *
 *                                                                   *
 *********************************************************************
 WARNING: dust option 1 currently works only with the GOCART aerosol option.
 WARNING: sea salt option 1 currently works only with the GOCART aerosol option.
 INPUT LandUse = "USGS"
  LANDUSE TYPE = "USGS" FOUND 33  CATEGORIES 2  SEASONS WATER CATEGORY =  16  SNOW CATEGORY =  24
 INITIALIZE THREE Noah LSM RELATED TABLES
  LANDUSE TYPE = USGS FOUND 27  CATEGORIES
  INPUT SOIL TEXTURE CLASSIFICATION = STAS
  SOIL TEXTURE CLASSIFICATION = STAS FOUND 19  CATEGORIES
 *********************************************************************
 *             PROGRAM:WRF/CHEM V3.6 MODEL
 *                                                                   *
 *    PLEASE REPORT ANY BUGS TO WRF/CHEM HELP at                     *
 *                                                                   *
 *              wrfchemhelp.gsd@noaa.gov                             *
 *                                                                   *
 *********************************************************************
 WARNING: dust option 1 currently works only with the GOCART aerosol option.
 WARNING: sea salt option 1 currently works only with the GOCART aerosol option.
 INPUT LandUse = "USGS"
  LANDUSE TYPE = "USGS" FOUND 33  CATEGORIES 2  SEASONS WATER CATEGORY =  16  SNOW CATEGORY =  24
 INITIALIZE THREE Noah LSM RELATED TABLES
  LANDUSE TYPE = USGS FOUND 27  CATEGORIES
  INPUT SOIL TEXTURE CLASSIFICATION = STAS
  SOIL TEXTURE CLASSIFICATION = STAS FOUND 19  CATEGORIES
 *********************************************************************
 *             PROGRAM:WRF/CHEM V3.6 MODEL
 *                                                                   *
 *    PLEASE REPORT ANY BUGS TO WRF/CHEM HELP at                     *
 *                                                                   *
 *              wrfchemhelp.gsd@noaa.gov                             *
 *                                                                   *
 *********************************************************************
 WARNING: dust option 1 currently works only with the GOCART aerosol option.
 WARNING: sea salt option 1 currently works only with the GOCART aerosol option.
  *************************************
  Nesting domain
  ids,ide,jds,jde  1 217 1 388
  ims,ime,jms,jme  -4 33 -4 39
  ips,ipe,jps,jpe  1 22 1 28
  INTERMEDIATE domain
  ids,ide,jds,jde  225 302 83 217
  ims,ime,jms,jme  220 243 78 103
  ips,ipe,jps,jpe  223 233 81 93
  *************************************
 d02 2016-02-05_12:00:00  alloc_space_field: domain  4 ,  165658064  bytes allocated
 d02 2016-02-05_12:00:00  alloc_space_field: domain  4 ,  7859904  bytes allocated
 d02 2016-02-05_12:00:00 *** Initializing nest domain # 4 from an input file. ***
 d02 2016-02-05_12:00:00 med_initialdata_input: calling input_input
Timing for processing wrfinput file (stream 0) for domain        4:    7.51075 elapsed seconds
 INPUT LandUse = "USGS"
  LANDUSE TYPE = "USGS" FOUND 33  CATEGORIES 2  SEASONS WATER CATEGORY =  16  SNOW CATEGORY =  24
 INITIALIZE THREE Noah LSM RELATED TABLES
  LANDUSE TYPE = USGS FOUND 27  CATEGORIES
  INPUT SOIL TEXTURE CLASSIFICATION = STAS
  SOIL TEXTURE CLASSIFICATION = STAS FOUND 19  CATEGORIES
 *********************************************************************
 *             PROGRAM:WRF/CHEM V3.6 MODEL
 *                                                                   *
 *    PLEASE REPORT ANY BUGS TO WRF/CHEM HELP at                     *
 *                                                                   *
 *              wrfchemhelp.gsd@noaa.gov                             *
 *                                                                   *
 *********************************************************************
 WARNING: dust option 1 currently works only with the GOCART aerosol option.
 WARNING: sea salt option 1 currently works only with the GOCART aerosol option.
 INPUT LandUse = "USGS"
  LANDUSE TYPE = "USGS" FOUND 33  CATEGORIES 2  SEASONS WATER CATEGORY =  16  SNOW CATEGORY =  24
 INITIALIZE THREE Noah LSM RELATED TABLES
  LANDUSE TYPE = USGS FOUND 27  CATEGORIES
  INPUT SOIL TEXTURE CLASSIFICATION = STAS
  SOIL TEXTURE CLASSIFICATION = STAS FOUND 19  CATEGORIES
 *********************************************************************
 *             PROGRAM:WRF/CHEM V3.6 MODEL
 *                                                                   *
 *    PLEASE REPORT ANY BUGS TO WRF/CHEM HELP at                     *
 *                                                                   *
 *              wrfchemhelp.gsd@noaa.gov                             *
 *                                                                   *
 *********************************************************************
 WARNING: dust option 1 currently works only with the GOCART aerosol option.
 WARNING: sea salt option 1 currently works only with the GOCART aerosol option.
 INPUT LandUse = "USGS"
  LANDUSE TYPE = "USGS" FOUND 33  CATEGORIES 2  SEASONS WATER CATEGORY =  16  SNOW CATEGORY =  24
 INITIALIZE THREE Noah LSM RELATED TABLES
  LANDUSE TYPE = USGS FOUND 27  CATEGORIES
  INPUT SOIL TEXTURE CLASSIFICATION = STAS
  SOIL TEXTURE CLASSIFICATION = STAS FOUND 19  CATEGORIES
 *********************************************************************
 *             PROGRAM:WRF/CHEM V3.6 MODEL
 *                                                                   *
 *    PLEASE REPORT ANY BUGS TO WRF/CHEM HELP at                     *
 *                                                                   *
 *              wrfchemhelp.gsd@noaa.gov                             *
 *                                                                   *
 *********************************************************************
 WARNING: dust option 1 currently works only with the GOCART aerosol option.
 WARNING: sea salt option 1 currently works only with the GOCART aerosol option.
Timing for Writing wrfout_d02_2016-02-05_12:00:00 for domain        2:    2.05190 elapsed seconds
  mediation_integrate: med_read_wrf_chem_emissions: Open file wrfchemi_12z_d02
  HOURLY EMISSIONS UPDATE TIME         .0        .0
 mediation_integrate: med_read_wrf_chem_emissions: Read emissions for time 2016-02-05_12:00:00
 **WARNING** Time in input file not being checked **WARNING**
  Tile Strategy is not specified. Assuming 1D-Y
 WRF TILE   1 IS      1 IE     36 JS      1 JE     18
 WRF NUMBER OF TILES =   1
  photolysis_driver: called for domain  2
Timing for Writing wrfout_d03_2016-02-05_12:00:00 for domain        3:    1.77737 elapsed seconds
  mediation_integrate: med_read_wrf_chem_emissions: Open file wrfchemi_12z_d03
  HOURLY EMISSIONS UPDATE TIME         .0        .0
 mediation_integrate: med_read_wrf_chem_emissions: Read emissions for time 2016-02-05_12:00:00
 **WARNING** Time in input file not being checked **WARNING**
  Tile Strategy is not specified. Assuming 1D-Y
 WRF TILE   1 IS      1 IE     31 JS      1 JE     18
 WRF NUMBER OF TILES =   1
  photolysis_driver: called for domain  3
Timing for main: time 2016-02-05_12:00:13 on domain   3:    5.02301 elapsed seconds
Timing for main: time 2016-02-05_12:00:26 on domain   3:     .16639 elapsed seconds
Timing for main: time 2016-02-05_12:00:40 on domain   3:     .20581 elapsed seconds
Timing for Writing wrfout_d04_2016-02-05_12:00:00 for domain        4:    1.95727 elapsed seconds
  mediation_integrate: med_read_wrf_chem_emissions: Open file wrfchemi_12z_d04
  HOURLY EMISSIONS UPDATE TIME         .0        .0
 mediation_integrate: med_read_wrf_chem_emissions: Read emissions for time 2016-02-05_12:00:00
 **WARNING** Time in input file not being checked **WARNING**
  Tile Strategy is not specified. Assuming 1D-Y
 WRF TILE   1 IS      1 IE     22 JS      1 JE     28
 WRF NUMBER OF TILES =   1
  photolysis_driver: called for domain  4
Timing for main: time 2016-02-05_12:00:20 on domain   4:    5.26670 elapsed seconds
Timing for main: time 2016-02-05_12:00:40 on domain   4:     .19892 elapsed seconds
Timing for main: time 2016-02-05_12:00:40 on domain   2:   35.44824 elapsed seconds
Timing for main: time 2016-02-05_12:00:53 on domain   3:     .22211 elapsed seconds
Timing for main: time 2016-02-05_12:01:06 on domain   3:     .20327 elapsed seconds
Timing for main: time 2016-02-05_12:01:20 on domain   3:     .20541 elapsed seconds
Timing for main: time 2016-02-05_12:01:00 on domain   4:     .24812 elapsed seconds
Timing for main: time 2016-02-05_12:01:20 on domain   4:     .26539 elapsed seconds
Timing for main: time 2016-02-05_12:01:20 on domain   2:    1.85563 elapsed seconds
Timing for main: time 2016-02-05_12:01:33 on domain   3:     .22432 elapsed seconds
Timing for main: time 2016-02-05_12:01:46 on domain   3:     .20520 elapsed seconds
Timing for main: time 2016-02-05_12:02:00 on domain   3:     .20735 elapsed seconds
Timing for main: time 2016-02-05_12:01:40 on domain   4:     .25103 elapsed seconds
Timing for main: time 2016-02-05_12:02:00 on domain   4:     .23910 elapsed seconds
Timing for main: time 2016-02-05_12:02:00 on domain   2:    1.93538 elapsed seconds
Timing for main: time 2016-02-05_12:02:00 on domain   1:   56.69830 elapsed seconds
Timing for main: time 2016-02-05_12:02:13 on domain   3:     .21570 elapsed seconds
Timing for main: time 2016-02-05_12:02:26 on domain   3:     .20460 elapsed seconds
Timing for main: time 2016-02-05_12:02:40 on domain   3:     .20827 elapsed seconds
Timing for main: time 2016-02-05_12:02:20 on domain   4:     .23694 elapsed seconds
Timing for main: time 2016-02-05_12:02:40 on domain   4:     .23590 elapsed seconds
Timing for main: time 2016-02-05_12:02:40 on domain   2:    1.87850 elapsed seconds
Timing for main: time 2016-02-05_12:02:53 on domain   3:     .25574 elapsed seconds
Timing for main: time 2016-02-05_12:03:06 on domain   3:     .23802 elapsed seconds
Timing for main: time 2016-02-05_12:03:20 on domain   3:     .20645 elapsed seconds
Timing for main: time 2016-02-05_12:03:00 on domain   4:     .23792 elapsed seconds
Timing for main: time 2016-02-05_12:03:20 on domain   4:     .23618 elapsed seconds
Timing for main: time 2016-02-05_12:03:20 on domain   2:    1.92472 elapsed seconds
Timing for main: time 2016-02-05_12:03:33 on domain   3:     .21762 elapsed seconds
Timing for main: time 2016-02-05_12:03:46 on domain   3:     .20659 elapsed seconds
Timing for main: time 2016-02-05_12:04:00 on domain   3:     .20562 elapsed seconds
Timing for main: time 2016-02-05_12:03:40 on domain   4:     .23811 elapsed seconds
Timing for main: time 2016-02-05_12:04:00 on domain   4:     .23792 elapsed seconds
Timing for main: time 2016-02-05_12:04:00 on domain   2:    1.85318 elapsed seconds
Timing for main: time 2016-02-05_12:04:00 on domain   1:    6.01515 elapsed seconds
Timing for main: time 2016-02-05_12:04:13 on domain   3:     .21576 elapsed seconds
Timing for main: time 2016-02-05_12:04:26 on domain   3:     .20466 elapsed seconds
Timing for main: time 2016-02-05_12:04:40 on domain   3:     .20506 elapsed seconds
Timing for main: time 2016-02-05_12:04:20 on domain   4:     .23994 elapsed seconds
Timing for main: time 2016-02-05_12:04:40 on domain   4:     .23641 elapsed seconds
Timing for main: time 2016-02-05_12:04:40 on domain   2:    1.86896 elapsed seconds
Timing for main: time 2016-02-05_12:04:53 on domain   3:     .21773 elapsed seconds
Timing for main: time 2016-02-05_12:05:06 on domain   3:     .21526 elapsed seconds
Timing for main: time 2016-02-05_12:05:20 on domain   3:     .20503 elapsed seconds
Timing for main: time 2016-02-05_12:05:00 on domain   4:     .24922 elapsed seconds
Timing for main: time 2016-02-05_12:05:20 on domain   4:     .24243 elapsed seconds
Timing for main: time 2016-02-05_12:05:20 on domain   2:    1.88960 elapsed seconds
Timing for main: time 2016-02-05_12:05:33 on domain   3:     .21596 elapsed seconds
Timing for main: time 2016-02-05_12:05:46 on domain   3:     .20822 elapsed seconds
Timing for main: time 2016-02-05_12:06:00 on domain   3:     .20673 elapsed seconds
Timing for main: time 2016-02-05_12:05:40 on domain   4:     .23873 elapsed seconds
Timing for main: time 2016-02-05_12:06:00 on domain   4:     .23886 elapsed seconds
Timing for main: time 2016-02-05_12:06:00 on domain   2:    1.85190 elapsed seconds
Timing for main: time 2016-02-05_12:06:00 on domain   1:    5.99298 elapsed seconds
Timing for main: time 2016-02-05_12:06:13 on domain   3:     .21616 elapsed seconds
Timing for main: time 2016-02-05_12:06:26 on domain   3:     .20396 elapsed seconds
Timing for main: time 2016-02-05_12:06:40 on domain   3:     .20428 elapsed seconds
Timing for main: time 2016-02-05_12:06:20 on domain   4:     .23996 elapsed seconds
Timing for main: time 2016-02-05_12:06:40 on domain   4:     .23792 elapsed seconds
Timing for main: time 2016-02-05_12:06:40 on domain   2:    1.87024 elapsed seconds
Timing for main: time 2016-02-05_12:06:53 on domain   3:     .21599 elapsed seconds
Timing for main: time 2016-02-05_12:07:06 on domain   3:     .20586 elapsed seconds
Timing for main: time 2016-02-05_12:07:20 on domain   3:     .20612 elapsed seconds
Timing for main: time 2016-02-05_12:07:00 on domain   4:     .23933 elapsed seconds
Timing for main: time 2016-02-05_12:07:20 on domain   4:     .23838 elapsed seconds
Timing for main: time 2016-02-05_12:07:20 on domain   2:    1.84927 elapsed seconds
Timing for main: time 2016-02-05_12:07:33 on domain   3:     .21821 elapsed seconds
Timing for main: time 2016-02-05_12:07:46 on domain   3:     .20413 elapsed seconds
Timing for main: time 2016-02-05_12:08:00 on domain   3:     .20550 elapsed seconds
Timing for main: time 2016-02-05_12:07:40 on domain   4:     .24181 elapsed seconds
Timing for main: time 2016-02-05_12:08:00 on domain   4:     .23682 elapsed seconds
Timing for main: time 2016-02-05_12:08:00 on domain   2:    1.85632 elapsed seconds
Timing for main: time 2016-02-05_12:08:00 on domain   1:    5.95167 elapsed seconds
Timing for main: time 2016-02-05_12:08:13 on domain   3:     .21604 elapsed seconds
Timing for main: time 2016-02-05_12:08:26 on domain   3:     .20442 elapsed seconds
Timing for main: time 2016-02-05_12:08:40 on domain   3:     .20608 elapsed seconds
Timing for main: time 2016-02-05_12:08:20 on domain   4:     .23954 elapsed seconds
Timing for main: time 2016-02-05_12:08:40 on domain   4:     .23835 elapsed seconds
Timing for main: time 2016-02-05_12:08:40 on domain   2:    1.86856 elapsed seconds
Timing for main: time 2016-02-05_12:08:53 on domain   3:     .21613 elapsed seconds
Timing for main: time 2016-02-05_12:09:06 on domain   3:     .20612 elapsed seconds
Timing for main: time 2016-02-05_12:09:20 on domain   3:     .20414 elapsed seconds
Timing for main: time 2016-02-05_12:09:00 on domain   4:     .24019 elapsed seconds
Timing for main: time 2016-02-05_12:09:20 on domain   4:     .23678 elapsed seconds
Timing for main: time 2016-02-05_12:09:20 on domain   2:    1.85181 elapsed seconds
Timing for main: time 2016-02-05_12:09:33 on domain   3:     .21535 elapsed seconds
Timing for main: time 2016-02-05_12:09:46 on domain   3:     .20487 elapsed seconds
Timing for main: time 2016-02-05_12:10:00 on domain   3:     .20709 elapsed seconds
Timing for main: time 2016-02-05_12:09:40 on domain   4:     .23889 elapsed seconds
Timing for main: time 2016-02-05_12:10:00 on domain   4:     .24784 elapsed seconds
Timing for main: time 2016-02-05_12:10:00 on domain   2:    1.86260 elapsed seconds
Timing for main: time 2016-02-05_12:10:00 on domain   1:    5.95900 elapsed seconds
Timing for main: time 2016-02-05_12:10:13 on domain   3:     .22518 elapsed seconds
Timing for main: time 2016-02-05_12:10:26 on domain   3:     .20409 elapsed seconds
Timing for main: time 2016-02-05_12:10:40 on domain   3:     .20622 elapsed seconds
Timing for main: time 2016-02-05_12:10:20 on domain   4:     .23926 elapsed seconds
Timing for main: time 2016-02-05_12:10:40 on domain   4:     .23738 elapsed seconds
Timing for main: time 2016-02-05_12:10:40 on domain   2:    1.88826 elapsed seconds
Timing for main: time 2016-02-05_12:10:53 on domain   3:     .24107 elapsed seconds
Timing for main: time 2016-02-05_12:11:06 on domain   3:     .20804 elapsed seconds
Timing for main: time 2016-02-05_12:11:20 on domain   3:     .20677 elapsed seconds
Timing for main: time 2016-02-05_12:11:00 on domain   4:     .23870 elapsed seconds
Timing for main: time 2016-02-05_12:11:20 on domain   4:     .23682 elapsed seconds
Timing for main: time 2016-02-05_12:11:20 on domain   2:    1.87942 elapsed seconds
Timing for main: time 2016-02-05_12:11:33 on domain   3:     .21880 elapsed seconds
Timing for main: time 2016-02-05_12:11:46 on domain   3:     .20418 elapsed seconds
Timing for main: time 2016-02-05_12:12:00 on domain   3:     .20547 elapsed seconds
Timing for main: time 2016-02-05_12:11:40 on domain   4:     .24360 elapsed seconds
Timing for main: time 2016-02-05_12:12:00 on domain   4:     .23728 elapsed seconds
Timing for main: time 2016-02-05_12:12:00 on domain   2:    1.86309 elapsed seconds
Timing for main: time 2016-02-05_12:12:00 on domain   1:    6.01819 elapsed seconds
Timing for main: time 2016-02-05_12:12:13 on domain   3:     .21573 elapsed seconds
Timing for main: time 2016-02-05_12:12:26 on domain   3:     .20477 elapsed seconds
Timing for main: time 2016-02-05_12:12:40 on domain   3:     .20582 elapsed seconds
Timing for main: time 2016-02-05_12:12:20 on domain   4:     .23901 elapsed seconds
Timing for main: time 2016-02-05_12:12:40 on domain   4:     .23685 elapsed seconds
Timing for main: time 2016-02-05_12:12:40 on domain   2:    1.86847 elapsed seconds
Timing for main: time 2016-02-05_12:12:53 on domain   3:     .21522 elapsed seconds
Timing for main: time 2016-02-05_12:13:06 on domain   3:     .20417 elapsed seconds
Timing for main: time 2016-02-05_12:13:20 on domain   3:     .20596 elapsed seconds
Timing for main: time 2016-02-05_12:13:00 on domain   4:     .23901 elapsed seconds
Timing for main: time 2016-02-05_12:13:20 on domain   4:     .23892 elapsed seconds
Timing for main: time 2016-02-05_12:13:20 on domain   2:    1.85331 elapsed seconds
Timing for main: time 2016-02-05_12:13:33 on domain   3:     .21608 elapsed seconds
Timing for main: time 2016-02-05_12:13:46 on domain   3:     .20420 elapsed seconds
Timing for main: time 2016-02-05_12:14:00 on domain   3:     .20943 elapsed seconds
Timing for main: time 2016-02-05_12:13:40 on domain   4:     .23999 elapsed seconds
Timing for main: time 2016-02-05_12:14:00 on domain   4:     .23927 elapsed seconds
Timing for main: time 2016-02-05_12:14:00 on domain   2:    1.86329 elapsed seconds
Timing for main: time 2016-02-05_12:14:00 on domain   1:    5.96129 elapsed seconds
Timing for main: time 2016-02-05_12:14:13 on domain   3:     .21575 elapsed seconds
Timing for main: time 2016-02-05_12:14:26 on domain   3:     .20394 elapsed seconds
Timing for main: time 2016-02-05_12:14:40 on domain   3:     .20638 elapsed seconds
Timing for main: time 2016-02-05_12:14:20 on domain   4:     .23944 elapsed seconds
Timing for main: time 2016-02-05_12:14:40 on domain   4:     .23780 elapsed seconds
Timing for main: time 2016-02-05_12:14:40 on domain   2:    1.86985 elapsed seconds
Timing for main: time 2016-02-05_12:14:53 on domain   3:     .21567 elapsed seconds
Timing for main: time 2016-02-05_12:15:06 on domain   3:     .20239 elapsed seconds
Timing for main: time 2016-02-05_12:15:20 on domain   3:     .21295 elapsed seconds
Timing for main: time 2016-02-05_12:15:00 on domain   4:     .25226 elapsed seconds
Timing for main: time 2016-02-05_12:15:20 on domain   4:     .24467 elapsed seconds
Timing for main: time 2016-02-05_12:15:20 on domain   2:    1.88249 elapsed seconds
Timing for main: time 2016-02-05_12:15:33 on domain   3:     .22079 elapsed seconds
Timing for main: time 2016-02-05_12:15:46 on domain   3:     .20604 elapsed seconds
Timing for main: time 2016-02-05_12:16:00 on domain   3:     .20439 elapsed seconds
Timing for main: time 2016-02-05_12:15:40 on domain   4:     .24095 elapsed seconds
Timing for main: time 2016-02-05_12:16:00 on domain   4:     .23992 elapsed seconds
Timing for main: time 2016-02-05_12:16:00 on domain   2:    1.86945 elapsed seconds
Timing for main: time 2016-02-05_12:16:00 on domain   1:    5.99546 elapsed seconds
Timing for main: time 2016-02-05_12:16:13 on domain   3:     .21290 elapsed seconds
Timing for main: time 2016-02-05_12:16:26 on domain   3:     .20423 elapsed seconds
Timing for main: time 2016-02-05_12:16:40 on domain   3:     .20614 elapsed seconds
Timing for main: time 2016-02-05_12:16:20 on domain   4:     .23947 elapsed seconds
Timing for main: time 2016-02-05_12:16:40 on domain   4:     .23865 elapsed seconds
Timing for main: time 2016-02-05_12:16:40 on domain   2:    1.87022 elapsed seconds
Timing for main: time 2016-02-05_12:16:53 on domain   3:     .21586 elapsed seconds
Timing for main: time 2016-02-05_12:17:06 on domain   3:     .20617 elapsed seconds
Timing for main: time 2016-02-05_12:17:20 on domain   3:     .20443 elapsed seconds
Timing for main: time 2016-02-05_12:17:00 on domain   4:     .23888 elapsed seconds
Timing for main: time 2016-02-05_12:17:20 on domain   4:     .23872 elapsed seconds
Timing for main: time 2016-02-05_12:17:20 on domain   2:    1.85086 elapsed seconds
Timing for main: time 2016-02-05_12:17:33 on domain   3:     .21589 elapsed seconds
Timing for main: time 2016-02-05_12:17:46 on domain   3:     .20504 elapsed seconds
Timing for main: time 2016-02-05_12:18:00 on domain   3:     .20667 elapsed seconds
Timing for main: time 2016-02-05_12:17:40 on domain   4:     .23897 elapsed seconds
Timing for main: time 2016-02-05_12:18:00 on domain   4:     .24293 elapsed seconds
Timing for main: time 2016-02-05_12:18:00 on domain   2:    1.85723 elapsed seconds
Timing for main: time 2016-02-05_12:18:00 on domain   1:    5.96154 elapsed seconds
Timing for main: time 2016-02-05_12:18:13 on domain   3:     .21552 elapsed seconds
Timing for main: time 2016-02-05_12:18:26 on domain   3:     .20474 elapsed seconds
Timing for main: time 2016-02-05_12:18:40 on domain   3:     .20435 elapsed seconds
Timing for main: time 2016-02-05_12:18:20 on domain   4:     .23891 elapsed seconds
Timing for main: time 2016-02-05_12:18:40 on domain   4:     .23911 elapsed seconds
Timing for main: time 2016-02-05_12:18:40 on domain   2:    1.86960 elapsed seconds
Timing for main: time 2016-02-05_12:18:53 on domain   3:     .21554 elapsed seconds
Timing for main: time 2016-02-05_12:19:06 on domain   3:     .20474 elapsed seconds
Timing for main: time 2016-02-05_12:19:20 on domain   3:     .21071 elapsed seconds
Timing for main: time 2016-02-05_12:19:00 on domain   4:     .23902 elapsed seconds
Timing for main: time 2016-02-05_12:19:20 on domain   4:     .23889 elapsed seconds
Timing for main: time 2016-02-05_12:19:20 on domain   2:    1.85543 elapsed seconds
Timing for main: time 2016-02-05_12:19:33 on domain   3:     .21548 elapsed seconds
Timing for main: time 2016-02-05_12:19:46 on domain   3:     .20422 elapsed seconds
Timing for main: time 2016-02-05_12:20:00 on domain   3:     .20651 elapsed seconds
Timing for main: time 2016-02-05_12:19:40 on domain   4:     .23890 elapsed seconds
Timing for main: time 2016-02-05_12:20:00 on domain   4:     .24789 elapsed seconds
Timing for main: time 2016-02-05_12:20:00 on domain   2:    1.86291 elapsed seconds
Timing for main: time 2016-02-05_12:20:00 on domain   1:    5.96405 elapsed seconds
Timing for main: time 2016-02-05_12:20:13 on domain   3:     .21499 elapsed seconds
Timing for main: time 2016-02-05_12:20:26 on domain   3:     .21525 elapsed seconds
Timing for main: time 2016-02-05_12:20:40 on domain   3:     .28596 elapsed seconds
Timing for main: time 2016-02-05_12:20:20 on domain   4:     .23923 elapsed seconds
Timing for main: time 2016-02-05_12:20:40 on domain   4:     .23866 elapsed seconds
Timing for main: time 2016-02-05_12:20:40 on domain   2:    1.94821 elapsed seconds
Timing for main: time 2016-02-05_12:20:53 on domain   3:     .21786 elapsed seconds
Timing for main: time 2016-02-05_12:21:06 on domain   3:     .20382 elapsed seconds
Timing for main: time 2016-02-05_12:21:20 on domain   3:     .20508 elapsed seconds
Timing for main: time 2016-02-05_12:21:00 on domain   4:     .23771 elapsed seconds
Timing for main: time 2016-02-05_12:21:20 on domain   4:     .23705 elapsed seconds
Timing for main: time 2016-02-05_12:21:20 on domain   2:    1.86301 elapsed seconds
Timing for main: time 2016-02-05_12:21:33 on domain   3:     .21740 elapsed seconds
Timing for main: time 2016-02-05_12:21:46 on domain   3:     .20240 elapsed seconds
Timing for main: time 2016-02-05_12:22:00 on domain   3:     .20644 elapsed seconds
Timing for main: time 2016-02-05_12:21:40 on domain   4:     .24167 elapsed seconds
Timing for main: time 2016-02-05_12:22:00 on domain   4:     .23705 elapsed seconds
Timing for main: time 2016-02-05_12:22:00 on domain   2:    1.90266 elapsed seconds
Timing for main: time 2016-02-05_12:22:00 on domain   1:    6.09111 elapsed seconds
Timing for main: time 2016-02-05_12:22:13 on domain   3:     .21541 elapsed seconds
Timing for main: time 2016-02-05_12:22:26 on domain   3:     .20421 elapsed seconds
Timing for main: time 2016-02-05_12:22:40 on domain   3:     .20521 elapsed seconds
Timing for main: time 2016-02-05_12:22:20 on domain   4:     .23926 elapsed seconds
Timing for main: time 2016-02-05_12:22:40 on domain   4:     .23702 elapsed seconds
Timing for main: time 2016-02-05_12:22:40 on domain   2:    1.86794 elapsed seconds
Timing for main: time 2016-02-05_12:22:53 on domain   3:     .21565 elapsed seconds
Timing for main: time 2016-02-05_12:23:06 on domain   3:     .20373 elapsed seconds
Timing for main: time 2016-02-05_12:23:20 on domain   3:     .20459 elapsed seconds
Timing for main: time 2016-02-05_12:23:00 on domain   4:     .28485 elapsed seconds
Timing for main: time 2016-02-05_12:23:20 on domain   4:     .24652 elapsed seconds
Timing for main: time 2016-02-05_12:23:20 on domain   2:    1.90354 elapsed seconds
Timing for main: time 2016-02-05_12:23:33 on domain   3:     .21611 elapsed seconds
Timing for main: time 2016-02-05_12:23:46 on domain   3:     .20411 elapsed seconds
Timing for main: time 2016-02-05_12:24:00 on domain   3:     .20500 elapsed seconds
Timing for main: time 2016-02-05_12:23:40 on domain   4:     .24140 elapsed seconds
Timing for main: time 2016-02-05_12:24:00 on domain   4:     .23765 elapsed seconds
Timing for main: time 2016-02-05_12:24:00 on domain   2:    1.85598 elapsed seconds
Timing for main: time 2016-02-05_12:24:00 on domain   1:    6.01126 elapsed seconds
Timing for main: time 2016-02-05_12:24:13 on domain   3:     .21604 elapsed seconds
Timing for main: time 2016-02-05_12:24:26 on domain   3:     .20219 elapsed seconds
Timing for main: time 2016-02-05_12:24:40 on domain   3:     .20552 elapsed seconds
Timing for main: time 2016-02-05_12:24:20 on domain   4:     .23943 elapsed seconds
Timing for main: time 2016-02-05_12:24:40 on domain   4:     .23665 elapsed seconds
Timing for main: time 2016-02-05_12:24:40 on domain   2:    1.86654 elapsed seconds
Timing for main: time 2016-02-05_12:24:53 on domain   3:     .21570 elapsed seconds
Timing for main: time 2016-02-05_12:25:06 on domain   3:     .20286 elapsed seconds
Timing for main: time 2016-02-05_12:25:20 on domain   3:     .20492 elapsed seconds
Timing for main: time 2016-02-05_12:25:00 on domain   4:     .25116 elapsed seconds
Timing for main: time 2016-02-05_12:25:20 on domain   4:     .24162 elapsed seconds
Timing for main: time 2016-02-05_12:25:20 on domain   2:    1.86671 elapsed seconds
Timing for main: time 2016-02-05_12:25:33 on domain   3:     .22768 elapsed seconds
Timing for main: time 2016-02-05_12:25:46 on domain   3:     .20344 elapsed seconds
Timing for main: time 2016-02-05_12:26:00 on domain   3:     .20468 elapsed seconds
Timing for main: time 2016-02-05_12:25:40 on domain   4:     .24152 elapsed seconds
Timing for main: time 2016-02-05_12:26:00 on domain   4:     .23950 elapsed seconds
Timing for main: time 2016-02-05_12:26:00 on domain   2:    1.86765 elapsed seconds
Timing for main: time 2016-02-05_12:26:00 on domain   1:    5.97651 elapsed seconds
Timing for main: time 2016-02-05_12:26:13 on domain   3:     .21310 elapsed seconds
Timing for main: time 2016-02-05_12:26:26 on domain   3:     .20310 elapsed seconds
Timing for main: time 2016-02-05_12:26:40 on domain   3:     .20647 elapsed seconds
Timing for main: time 2016-02-05_12:26:20 on domain   4:     .23899 elapsed seconds
Timing for main: time 2016-02-05_12:26:40 on domain   4:     .23869 elapsed seconds
Timing for main: time 2016-02-05_12:26:40 on domain   2:    1.87645 elapsed seconds
Timing for main: time 2016-02-05_12:26:53 on domain   3:     .21562 elapsed seconds
Timing for main: time 2016-02-05_12:27:06 on domain   3:     .20332 elapsed seconds
Timing for main: time 2016-02-05_12:27:20 on domain   3:     .20512 elapsed seconds
Timing for main: time 2016-02-05_12:27:00 on domain   4:     .23848 elapsed seconds
Timing for main: time 2016-02-05_12:27:20 on domain   4:     .23878 elapsed seconds
Timing for main: time 2016-02-05_12:27:20 on domain   2:    1.85001 elapsed seconds
Timing for main: time 2016-02-05_12:27:33 on domain   3:     .21545 elapsed seconds
Timing for main: time 2016-02-05_12:27:46 on domain   3:     .20530 elapsed seconds
Timing for main: time 2016-02-05_12:28:00 on domain   3:     .20309 elapsed seconds
Timing for main: time 2016-02-05_12:27:40 on domain   4:     .23894 elapsed seconds
Timing for main: time 2016-02-05_12:28:00 on domain   4:     .24276 elapsed seconds
Timing for main: time 2016-02-05_12:28:00 on domain   2:    1.85351 elapsed seconds
Timing for main: time 2016-02-05_12:28:00 on domain   1:    5.95432 elapsed seconds
  photolysis_driver: called for domain  1
Timing for main: time 2016-02-05_12:28:13 on domain   3:     .21615 elapsed seconds
Timing for main: time 2016-02-05_12:28:26 on domain   3:     .20263 elapsed seconds
Timing for main: time 2016-02-05_12:28:40 on domain   3:     .20467 elapsed seconds
Timing for main: time 2016-02-05_12:28:20 on domain   4:     .23983 elapsed seconds
Timing for main: time 2016-02-05_12:28:40 on domain   4:     .23871 elapsed seconds
Timing for main: time 2016-02-05_12:28:40 on domain   2:    1.86533 elapsed seconds
Timing for main: time 2016-02-05_12:28:53 on domain   3:     .21759 elapsed seconds
Timing for main: time 2016-02-05_12:29:06 on domain   3:     .20150 elapsed seconds
Timing for main: time 2016-02-05_12:29:20 on domain   3:     .20436 elapsed seconds
Timing for main: time 2016-02-05_12:29:00 on domain   4:     .23907 elapsed seconds
Timing for main: time 2016-02-05_12:29:20 on domain   4:     .23934 elapsed seconds
Timing for main: time 2016-02-05_12:29:20 on domain   2:    1.85491 elapsed seconds
  photolysis_driver: called for domain  2
Timing for main: time 2016-02-05_12:29:33 on domain   3:     .21538 elapsed seconds
Timing for main: time 2016-02-05_12:29:46 on domain   3:     .20575 elapsed seconds
  photolysis_driver: called for domain  3
Timing for main: time 2016-02-05_12:30:00 on domain   3:    1.24692 elapsed seconds
Timing for main: time 2016-02-05_12:29:40 on domain   4:     .23864 elapsed seconds
  photolysis_driver: called for domain  4
Timing for main: time 2016-02-05_12:30:00 on domain   4:    1.39226 elapsed seconds
Timing for main: time 2016-02-05_12:30:00 on domain   2:    5.23928 elapsed seconds
Timing for main: time 2016-02-05_12:30:00 on domain   1:   10.08504 elapsed seconds
Timing for main: time 2016-02-05_12:30:13 on domain   3:     .42129 elapsed seconds
Timing for main: time 2016-02-05_12:30:26 on domain   3:     .19970 elapsed seconds
Timing for main: time 2016-02-05_12:30:40 on domain   3:     .21335 elapsed seconds
Timing for main: time 2016-02-05_12:30:20 on domain   4:     .46754 elapsed seconds
Timing for main: time 2016-02-05_12:30:40 on domain   4:     .23571 elapsed seconds
Timing for main: time 2016-02-05_12:30:40 on domain   2:    2.54662 elapsed seconds
Timing for main: time 2016-02-05_12:30:53 on domain   3:     .21389 elapsed seconds
Timing for main: time 2016-02-05_12:31:06 on domain   3:     .20276 elapsed seconds
Timing for main: time 2016-02-05_12:31:20 on domain   3:     .20247 elapsed seconds
Timing for main: time 2016-02-05_12:31:00 on domain   4:     .23741 elapsed seconds
Timing for main: time 2016-02-05_12:31:20 on domain   4:     .23556 elapsed seconds
Timing for main: time 2016-02-05_12:31:20 on domain   2:    1.84231 elapsed seconds
Timing for main: time 2016-02-05_12:31:33 on domain   3:     .21404 elapsed seconds
Timing for main: time 2016-02-05_12:31:46 on domain   3:     .20108 elapsed seconds
Timing for main: time 2016-02-05_12:32:00 on domain   3:     .20431 elapsed seconds
Timing for main: time 2016-02-05_12:31:40 on domain   4:     .23770 elapsed seconds
Timing for main: time 2016-02-05_12:32:00 on domain   4:     .23560 elapsed seconds
Timing for main: time 2016-02-05_12:32:00 on domain   2:    1.85230 elapsed seconds
Timing for main: time 2016-02-05_12:32:00 on domain   1:    6.79264 elapsed seconds
Timing for main: time 2016-02-05_12:32:13 on domain   3:     .21406 elapsed seconds
Timing for main: time 2016-02-05_12:32:26 on domain   3:     .20180 elapsed seconds
Timing for main: time 2016-02-05_12:32:40 on domain   3:     .20331 elapsed seconds
Timing for main: time 2016-02-05_12:32:20 on domain   4:     .25094 elapsed seconds
Timing for main: time 2016-02-05_12:32:40 on domain   4:     .28461 elapsed seconds
Timing for main: time 2016-02-05_12:32:40 on domain   2:    1.92108 elapsed seconds
Timing for main: time 2016-02-05_12:32:53 on domain   3:     .21287 elapsed seconds
Timing for main: time 2016-02-05_12:33:06 on domain   3:     .20261 elapsed seconds
Timing for main: time 2016-02-05_12:33:20 on domain   3:     .20325 elapsed seconds
Timing for main: time 2016-02-05_12:33:00 on domain   4:     .23714 elapsed seconds
Timing for main: time 2016-02-05_12:33:20 on domain   4:     .23574 elapsed seconds
Timing for main: time 2016-02-05_12:33:20 on domain   2:    1.84329 elapsed seconds
Timing for main: time 2016-02-05_12:33:33 on domain   3:     .21481 elapsed seconds
Timing for main: time 2016-02-05_12:33:46 on domain   3:     .20239 elapsed seconds
Timing for main: time 2016-02-05_12:34:00 on domain   3:     .20453 elapsed seconds
Timing for main: time 2016-02-05_12:33:40 on domain   4:     .23729 elapsed seconds
Timing for main: time 2016-02-05_12:34:00 on domain   4:     .23462 elapsed seconds
Timing for main: time 2016-02-05_12:34:00 on domain   2:    1.85049 elapsed seconds
Timing for main: time 2016-02-05_12:34:00 on domain   1:    5.99169 elapsed seconds
Timing for main: time 2016-02-05_12:34:13 on domain   3:     .21464 elapsed seconds
Timing for main: time 2016-02-05_12:34:26 on domain   3:     .20114 elapsed seconds
Timing for main: time 2016-02-05_12:34:40 on domain   3:     .20358 elapsed seconds
Timing for main: time 2016-02-05_12:34:20 on domain   4:     .23754 elapsed seconds
Timing for main: time 2016-02-05_12:34:40 on domain   4:     .23557 elapsed seconds
Timing for main: time 2016-02-05_12:34:40 on domain   2:    1.85831 elapsed seconds
Timing for main: time 2016-02-05_12:34:53 on domain   3:     .21420 elapsed seconds
Timing for main: time 2016-02-05_12:35:06 on domain   3:     .20187 elapsed seconds
Timing for main: time 2016-02-05_12:35:20 on domain   3:     .20336 elapsed seconds
Timing for main: time 2016-02-05_12:35:00 on domain   4:     .24831 elapsed seconds
Timing for main: time 2016-02-05_12:35:20 on domain   4:     .23560 elapsed seconds
Timing for main: time 2016-02-05_12:35:20 on domain   2:    1.85328 elapsed seconds
Timing for main: time 2016-02-05_12:35:33 on domain   3:     .21391 elapsed seconds
Timing for main: time 2016-02-05_12:35:46 on domain   3:     .21358 elapsed seconds
Timing for main: time 2016-02-05_12:36:00 on domain   3:     .20095 elapsed seconds
Timing for main: time 2016-02-05_12:35:40 on domain   4:     .23805 elapsed seconds
Timing for main: time 2016-02-05_12:36:00 on domain   4:     .23749 elapsed seconds
Timing for main: time 2016-02-05_12:36:00 on domain   2:    1.85405 elapsed seconds
Timing for main: time 2016-02-05_12:36:00 on domain   1:    5.95645 elapsed seconds
Timing for main: time 2016-02-05_12:36:13 on domain   3:     .21773 elapsed seconds
Timing for main: time 2016-02-05_12:36:26 on domain   3:     .20122 elapsed seconds
Timing for main: time 2016-02-05_12:36:40 on domain   3:     .20366 elapsed seconds
Timing for main: time 2016-02-05_12:36:20 on domain   4:     .23711 elapsed seconds
Timing for main: time 2016-02-05_12:36:40 on domain   4:     .23555 elapsed seconds
Timing for main: time 2016-02-05_12:36:40 on domain   2:    1.86328 elapsed seconds
Timing for main: time 2016-02-05_12:36:53 on domain   3:     .21478 elapsed seconds
Timing for main: time 2016-02-05_12:37:06 on domain   3:     .20296 elapsed seconds
Timing for main: time 2016-02-05_12:37:20 on domain   3:     .20369 elapsed seconds
Timing for main: time 2016-02-05_12:37:00 on domain   4:     .23753 elapsed seconds
Timing for main: time 2016-02-05_12:37:20 on domain   4:     .23755 elapsed seconds
Timing for main: time 2016-02-05_12:37:20 on domain   2:    1.85653 elapsed seconds
Timing for main: time 2016-02-05_12:37:33 on domain   3:     .21395 elapsed seconds
Timing for main: time 2016-02-05_12:37:46 on domain   3:     .20382 elapsed seconds
Timing for main: time 2016-02-05_12:38:00 on domain   3:     .20333 elapsed seconds
Timing for main: time 2016-02-05_12:37:40 on domain   4:     .23744 elapsed seconds
Timing for main: time 2016-02-05_12:38:00 on domain   4:     .23765 elapsed seconds
Timing for main: time 2016-02-05_12:38:00 on domain   2:    1.83820 elapsed seconds
Timing for main: time 2016-02-05_12:38:00 on domain   1:    5.93544 elapsed seconds
Timing for main: time 2016-02-05_12:38:13 on domain   3:     .21414 elapsed seconds
Timing for main: time 2016-02-05_12:38:26 on domain   3:     .20253 elapsed seconds
Timing for main: time 2016-02-05_12:38:40 on domain   3:     .20675 elapsed seconds
Timing for main: time 2016-02-05_12:38:20 on domain   4:     .23729 elapsed seconds
Timing for main: time 2016-02-05_12:38:40 on domain   4:     .23853 elapsed seconds
Timing for main: time 2016-02-05_12:38:40 on domain   2:    1.86406 elapsed seconds
Timing for main: time 2016-02-05_12:38:53 on domain   3:     .21400 elapsed seconds
Timing for main: time 2016-02-05_12:39:06 on domain   3:     .20318 elapsed seconds
Timing for main: time 2016-02-05_12:39:20 on domain   3:     .20401 elapsed seconds
Timing for main: time 2016-02-05_12:39:00 on domain   4:     .23767 elapsed seconds
Timing for main: time 2016-02-05_12:39:20 on domain   4:     .23739 elapsed seconds
Timing for main: time 2016-02-05_12:39:20 on domain   2:    1.84065 elapsed seconds
Timing for main: time 2016-02-05_12:39:33 on domain   3:     .21424 elapsed seconds
Timing for main: time 2016-02-05_12:39:46 on domain   3:     .20158 elapsed seconds
Timing for main: time 2016-02-05_12:40:00 on domain   3:     .20321 elapsed seconds
Timing for main: time 2016-02-05_12:39:40 on domain   4:     .24343 elapsed seconds
Timing for main: time 2016-02-05_12:40:00 on domain   4:     .24634 elapsed seconds
Timing for main: time 2016-02-05_12:40:00 on domain   2:    1.86047 elapsed seconds
Timing for main: time 2016-02-05_12:40:00 on domain   1:    5.94237 elapsed seconds
Timing for main: time 2016-02-05_12:40:13 on domain   3:     .21499 elapsed seconds
Timing for main: time 2016-02-05_12:40:26 on domain   3:     .20240 elapsed seconds
Timing for main: time 2016-02-05_12:40:40 on domain   3:     .20337 elapsed seconds
Timing for main: time 2016-02-05_12:40:20 on domain   4:     .23758 elapsed seconds
Timing for main: time 2016-02-05_12:40:40 on domain   4:     .25292 elapsed seconds
Timing for main: time 2016-02-05_12:40:40 on domain   2:    1.87490 elapsed seconds
Timing for main: time 2016-02-05_12:40:53 on domain   3:     .22419 elapsed seconds
Timing for main: time 2016-02-05_12:41:06 on domain   3:     .20134 elapsed seconds
Timing for main: time 2016-02-05_12:41:20 on domain   3:     .20427 elapsed seconds
Timing for main: time 2016-02-05_12:41:00 on domain   4:     .23717 elapsed seconds
Timing for main: time 2016-02-05_12:41:20 on domain   4:     .23586 elapsed seconds
Timing for main: time 2016-02-05_12:41:20 on domain   2:    1.85245 elapsed seconds
Timing for main: time 2016-02-05_12:41:33 on domain   3:     .24767 elapsed seconds
Timing for main: time 2016-02-05_12:41:46 on domain   3:     .20835 elapsed seconds
Timing for main: time 2016-02-05_12:42:00 on domain   3:     .20323 elapsed seconds
Timing for main: time 2016-02-05_12:41:40 on domain   4:     .23777 elapsed seconds
Timing for main: time 2016-02-05_12:42:00 on domain   4:     .23565 elapsed seconds
Timing for main: time 2016-02-05_12:42:00 on domain   2:    1.88308 elapsed seconds
Timing for main: time 2016-02-05_12:42:00 on domain   1:    5.99539 elapsed seconds
Timing for main: time 2016-02-05_12:42:13 on domain   3:     .21750 elapsed seconds
Timing for main: time 2016-02-05_12:42:26 on domain   3:     .19843 elapsed seconds
Timing for main: time 2016-02-05_12:42:40 on domain   3:     .20364 elapsed seconds
Timing for main: time 2016-02-05_12:42:20 on domain   4:     .23701 elapsed seconds
Timing for main: time 2016-02-05_12:42:40 on domain   4:     .23564 elapsed seconds
Timing for main: time 2016-02-05_12:42:40 on domain   2:    1.86915 elapsed seconds
Timing for main: time 2016-02-05_12:42:53 on domain   3:     .21456 elapsed seconds
Timing for main: time 2016-02-05_12:43:06 on domain   3:     .20082 elapsed seconds
Timing for main: time 2016-02-05_12:43:20 on domain   3:     .20362 elapsed seconds
Timing for main: time 2016-02-05_12:43:00 on domain   4:     .23721 elapsed seconds
Timing for main: time 2016-02-05_12:43:20 on domain   4:     .23577 elapsed seconds
Timing for main: time 2016-02-05_12:43:20 on domain   2:    1.89758 elapsed seconds
Timing for main: time 2016-02-05_12:43:33 on domain   3:     .21531 elapsed seconds
Timing for main: time 2016-02-05_12:43:46 on domain   3:     .20059 elapsed seconds
Timing for main: time 2016-02-05_12:44:00 on domain   3:     .20889 elapsed seconds
Timing for main: time 2016-02-05_12:43:40 on domain   4:     .23720 elapsed seconds
Timing for main: time 2016-02-05_12:44:00 on domain   4:     .23573 elapsed seconds
Timing for main: time 2016-02-05_12:44:00 on domain   2:    1.85078 elapsed seconds
Timing for main: time 2016-02-05_12:44:00 on domain   1:    5.99480 elapsed seconds
Timing for main: time 2016-02-05_12:44:13 on domain   3:     .21474 elapsed seconds
Timing for main: time 2016-02-05_12:44:26 on domain   3:     .21185 elapsed seconds
Timing for main: time 2016-02-05_12:44:40 on domain   3:     .20363 elapsed seconds
Timing for main: time 2016-02-05_12:44:20 on domain   4:     .23722 elapsed seconds
Timing for main: time 2016-02-05_12:44:40 on domain   4:     .23579 elapsed seconds
Timing for main: time 2016-02-05_12:44:40 on domain   2:    1.87176 elapsed seconds
Timing for main: time 2016-02-05_12:44:53 on domain   3:     .21406 elapsed seconds
Timing for main: time 2016-02-05_12:45:06 on domain   3:     .20234 elapsed seconds
Timing for main: time 2016-02-05_12:45:20 on domain   3:     .20313 elapsed seconds
Timing for main: time 2016-02-05_12:45:00 on domain   4:     .24823 elapsed seconds
Timing for main: time 2016-02-05_12:45:20 on domain   4:     .23525 elapsed seconds
Timing for main: time 2016-02-05_12:45:20 on domain   2:    1.85226 elapsed seconds
Timing for main: time 2016-02-05_12:45:33 on domain   3:     .21483 elapsed seconds
Timing for main: time 2016-02-05_12:45:46 on domain   3:     .20101 elapsed seconds
Timing for main: time 2016-02-05_12:46:00 on domain   3:     .21332 elapsed seconds
Timing for main: time 2016-02-05_12:45:40 on domain   4:     .23724 elapsed seconds
Timing for main: time 2016-02-05_12:46:00 on domain   4:     .23735 elapsed seconds
Timing for main: time 2016-02-05_12:46:00 on domain   2:    1.85289 elapsed seconds
Timing for main: time 2016-02-05_12:46:00 on domain   1:    5.96070 elapsed seconds
Timing for main: time 2016-02-05_12:46:13 on domain   3:     .21440 elapsed seconds
Timing for main: time 2016-02-05_12:46:26 on domain   3:     .20635 elapsed seconds
Timing for main: time 2016-02-05_12:46:40 on domain   3:     .20341 elapsed seconds
Timing for main: time 2016-02-05_12:46:20 on domain   4:     .23707 elapsed seconds
Timing for main: time 2016-02-05_12:46:40 on domain   4:     .23586 elapsed seconds
Timing for main: time 2016-02-05_12:46:40 on domain   2:    1.86288 elapsed seconds
Timing for main: time 2016-02-05_12:46:53 on domain   3:     .21566 elapsed seconds
Timing for main: time 2016-02-05_12:47:06 on domain   3:     .20598 elapsed seconds
Timing for main: time 2016-02-05_12:47:20 on domain   3:     .20375 elapsed seconds
Timing for main: time 2016-02-05_12:47:00 on domain   4:     .23746 elapsed seconds
Timing for main: time 2016-02-05_12:47:20 on domain   4:     .23757 elapsed seconds
Timing for main: time 2016-02-05_12:47:20 on domain   2:    1.84935 elapsed seconds
Timing for main: time 2016-02-05_12:47:33 on domain   3:     .21757 elapsed seconds
Timing for main: time 2016-02-05_12:47:46 on domain   3:     .20333 elapsed seconds
Timing for main: time 2016-02-05_12:48:00 on domain   3:     .20209 elapsed seconds
Timing for main: time 2016-02-05_12:47:40 on domain   4:     .23706 elapsed seconds
Timing for main: time 2016-02-05_12:48:00 on domain   4:     .23752 elapsed seconds
Timing for main: time 2016-02-05_12:48:00 on domain   2:    1.85441 elapsed seconds
Timing for main: time 2016-02-05_12:48:00 on domain   1:    5.94938 elapsed seconds
Timing for main: time 2016-02-05_12:48:13 on domain   3:     .21463 elapsed seconds
Timing for main: time 2016-02-05_12:48:26 on domain   3:     .20252 elapsed seconds
Timing for main: time 2016-02-05_12:48:40 on domain   3:     .20287 elapsed seconds
Timing for main: time 2016-02-05_12:48:20 on domain   4:     .23722 elapsed seconds
Timing for main: time 2016-02-05_12:48:40 on domain   4:     .23799 elapsed seconds
Timing for main: time 2016-02-05_12:48:40 on domain   2:    1.86356 elapsed seconds
Timing for main: time 2016-02-05_12:48:53 on domain   3:     .21390 elapsed seconds
Timing for main: time 2016-02-05_12:49:06 on domain   3:     .20310 elapsed seconds
Timing for main: time 2016-02-05_12:49:20 on domain   3:     .20281 elapsed seconds
Timing for main: time 2016-02-05_12:49:00 on domain   4:     .23698 elapsed seconds
Timing for main: time 2016-02-05_12:49:20 on domain   4:     .23762 elapsed seconds
Timing for main: time 2016-02-05_12:49:20 on domain   2:    1.83974 elapsed seconds
Timing for main: time 2016-02-05_12:49:33 on domain   3:     .21435 elapsed seconds
Timing for main: time 2016-02-05_12:49:46 on domain   3:     .20286 elapsed seconds
Timing for main: time 2016-02-05_12:50:00 on domain   3:     .20286 elapsed seconds
Timing for main: time 2016-02-05_12:49:40 on domain   4:     .23761 elapsed seconds
Timing for main: time 2016-02-05_12:50:00 on domain   4:     .25265 elapsed seconds
Timing for main: time 2016-02-05_12:50:00 on domain   2:    1.85662 elapsed seconds
Timing for main: time 2016-02-05_12:50:00 on domain   1:    5.93674 elapsed seconds
Timing for main: time 2016-02-05_12:50:13 on domain   3:     .21464 elapsed seconds
Timing for main: time 2016-02-05_12:50:26 on domain   3:     .20162 elapsed seconds
Timing for main: time 2016-02-05_12:50:40 on domain   3:     .20336 elapsed seconds
Timing for main: time 2016-02-05_12:50:20 on domain   4:     .23752 elapsed seconds
Timing for main: time 2016-02-05_12:50:40 on domain   4:     .23768 elapsed seconds
Timing for main: time 2016-02-05_12:50:40 on domain   2:    1.86155 elapsed seconds
Timing for main: time 2016-02-05_12:50:53 on domain   3:     .21476 elapsed seconds
Timing for main: time 2016-02-05_12:51:06 on domain   3:     .21174 elapsed seconds
Timing for main: time 2016-02-05_12:51:20 on domain   3:     .25089 elapsed seconds
Timing for main: time 2016-02-05_12:51:00 on domain   4:     .23779 elapsed seconds
Timing for main: time 2016-02-05_12:51:20 on domain   4:     .23727 elapsed seconds
Timing for main: time 2016-02-05_12:51:20 on domain   2:    1.92103 elapsed seconds
Timing for main: time 2016-02-05_12:51:33 on domain   3:     .21467 elapsed seconds
Timing for main: time 2016-02-05_12:51:46 on domain   3:     .20278 elapsed seconds
Timing for main: time 2016-02-05_12:52:00 on domain   3:     .20237 elapsed seconds
Timing for main: time 2016-02-05_12:51:40 on domain   4:     .23765 elapsed seconds
Timing for main: time 2016-02-05_12:52:00 on domain   4:     .23598 elapsed seconds
Timing for main: time 2016-02-05_12:52:00 on domain   2:    1.84251 elapsed seconds
Timing for main: time 2016-02-05_12:52:00 on domain   1:    6.00183 elapsed seconds
Timing for main: time 2016-02-05_12:52:13 on domain   3:     .21503 elapsed seconds
Timing for main: time 2016-02-05_12:52:26 on domain   3:     .20215 elapsed seconds
Timing for main: time 2016-02-05_12:52:40 on domain   3:     .20333 elapsed seconds
Timing for main: time 2016-02-05_12:52:20 on domain   4:     .23763 elapsed seconds
Timing for main: time 2016-02-05_12:52:40 on domain   4:     .23719 elapsed seconds
Timing for main: time 2016-02-05_12:52:40 on domain   2:    1.85930 elapsed seconds
Timing for main: time 2016-02-05_12:52:53 on domain   3:     .21418 elapsed seconds
Timing for main: time 2016-02-05_12:53:06 on domain   3:     .20197 elapsed seconds
Timing for main: time 2016-02-05_12:53:20 on domain   3:     .20399 elapsed seconds
Timing for main: time 2016-02-05_12:53:00 on domain   4:     .23787 elapsed seconds
Timing for main: time 2016-02-05_12:53:20 on domain   4:     .23586 elapsed seconds
Timing for main: time 2016-02-05_12:53:20 on domain   2:    1.85537 elapsed seconds
Timing for main: time 2016-02-05_12:53:33 on domain   3:     .21374 elapsed seconds
Timing for main: time 2016-02-05_12:53:46 on domain   3:     .20143 elapsed seconds
Timing for main: time 2016-02-05_12:54:00 on domain   3:     .20306 elapsed seconds
Timing for main: time 2016-02-05_12:53:40 on domain   4:     .24151 elapsed seconds
Timing for main: time 2016-02-05_12:54:00 on domain   4:     .23776 elapsed seconds
Timing for main: time 2016-02-05_12:54:00 on domain   2:    1.84703 elapsed seconds
Timing for main: time 2016-02-05_12:54:00 on domain   1:    5.94627 elapsed seconds
Timing for main: time 2016-02-05_12:54:13 on domain   3:     .21443 elapsed seconds
Timing for main: time 2016-02-05_12:54:26 on domain   3:     .20345 elapsed seconds
Timing for main: time 2016-02-05_12:54:40 on domain   3:     .20181 elapsed seconds
Timing for main: time 2016-02-05_12:54:20 on domain   4:     .23755 elapsed seconds
Timing for main: time 2016-02-05_12:54:40 on domain   4:     .23570 elapsed seconds
Timing for main: time 2016-02-05_12:54:40 on domain   2:    1.85863 elapsed seconds
Timing for main: time 2016-02-05_12:54:53 on domain   3:     .21379 elapsed seconds
Timing for main: time 2016-02-05_12:55:06 on domain   3:     .20267 elapsed seconds
Timing for main: time 2016-02-05_12:55:20 on domain   3:     .20233 elapsed seconds
Timing for main: time 2016-02-05_12:55:00 on domain   4:     .24829 elapsed seconds
Timing for main: time 2016-02-05_12:55:20 on domain   4:     .23555 elapsed seconds
Timing for main: time 2016-02-05_12:55:20 on domain   2:    1.85246 elapsed seconds
Timing for main: time 2016-02-05_12:55:33 on domain   3:     .21413 elapsed seconds
Timing for main: time 2016-02-05_12:55:46 on domain   3:     .20142 elapsed seconds
Timing for main: time 2016-02-05_12:56:00 on domain   3:     .20361 elapsed seconds
Timing for main: time 2016-02-05_12:55:40 on domain   4:     .23711 elapsed seconds
Timing for main: time 2016-02-05_12:56:00 on domain   4:     .23768 elapsed seconds
Timing for main: time 2016-02-05_12:56:00 on domain   2:    1.84287 elapsed seconds
Timing for main: time 2016-02-05_12:56:00 on domain   1:    5.92977 elapsed seconds
Timing for main: time 2016-02-05_12:56:13 on domain   3:     .22426 elapsed seconds
Timing for main: time 2016-02-05_12:56:26 on domain   3:     .20152 elapsed seconds
Timing for main: time 2016-02-05_12:56:40 on domain   3:     .20323 elapsed seconds
Timing for main: time 2016-02-05_12:56:20 on domain   4:     .23728 elapsed seconds
Timing for main: time 2016-02-05_12:56:40 on domain   4:     .23573 elapsed seconds
Timing for main: time 2016-02-05_12:56:40 on domain   2:    1.87606 elapsed seconds
Timing for main: time 2016-02-05_12:56:53 on domain   3:     .21407 elapsed seconds
Timing for main: time 2016-02-05_12:57:06 on domain   3:     .20151 elapsed seconds
Timing for main: time 2016-02-05_12:57:20 on domain   3:     .20346 elapsed seconds
Timing for main: time 2016-02-05_12:57:00 on domain   4:     .23967 elapsed seconds
Timing for main: time 2016-02-05_12:57:20 on domain   4:     .23740 elapsed seconds
Timing for main: time 2016-02-05_12:57:20 on domain   2:    1.84531 elapsed seconds
Timing for main: time 2016-02-05_12:57:33 on domain   3:     .21438 elapsed seconds
Timing for main: time 2016-02-05_12:57:46 on domain   3:     .21023 elapsed seconds
Timing for main: time 2016-02-05_12:58:00 on domain   3:     .19872 elapsed seconds
Timing for main: time 2016-02-05_12:57:40 on domain   4:     .23728 elapsed seconds
Timing for main: time 2016-02-05_12:58:00 on domain   4:     .23729 elapsed seconds
Timing for main: time 2016-02-05_12:58:00 on domain   2:    1.84319 elapsed seconds
Timing for main: time 2016-02-05_12:58:00 on domain   1:    5.93909 elapsed seconds
  photolysis_driver: called for domain  1
Timing for main: time 2016-02-05_12:58:13 on domain   3:     .21542 elapsed seconds
Timing for main: time 2016-02-05_12:58:26 on domain   3:     .20570 elapsed seconds
Timing for main: time 2016-02-05_12:58:40 on domain   3:     .20282 elapsed seconds
Timing for main: time 2016-02-05_12:58:20 on domain   4:     .23746 elapsed seconds
Timing for main: time 2016-02-05_12:58:40 on domain   4:     .23732 elapsed seconds
Timing for main: time 2016-02-05_12:58:40 on domain   2:    1.87571 elapsed seconds
Timing for main: time 2016-02-05_12:58:53 on domain   3:     .21432 elapsed seconds
Timing for main: time 2016-02-05_12:59:06 on domain   3:     .20185 elapsed seconds
Timing for main: time 2016-02-05_12:59:20 on domain   3:     .20314 elapsed seconds
Timing for main: time 2016-02-05_12:59:00 on domain   4:     .23989 elapsed seconds
Timing for main: time 2016-02-05_12:59:20 on domain   4:     .23681 elapsed seconds
Timing for main: time 2016-02-05_12:59:20 on domain   2:    1.84528 elapsed seconds
  photolysis_driver: called for domain  2
Timing for main: time 2016-02-05_12:59:33 on domain   3:     .21346 elapsed seconds
Timing for main: time 2016-02-05_12:59:46 on domain   3:     .20577 elapsed seconds
  photolysis_driver: called for domain  3
Timing for main: time 2016-02-05_13:00:00 on domain   3:    1.24237 elapsed seconds
Timing for main: time 2016-02-05_12:59:40 on domain   4:     .23740 elapsed seconds
  photolysis_driver: called for domain  4
Timing for main: time 2016-02-05_13:00:00 on domain   4:    1.39715 elapsed seconds
Timing for main: time 2016-02-05_13:00:00 on domain   2:    5.25922 elapsed seconds
Timing for main: time 2016-02-05_13:00:00 on domain   1:   10.10407 elapsed seconds
Timing for Writing wrfout_d01_2016-02-05_13:00:00 for domain        1:    1.49149 elapsed seconds
  HOURLY EMISSIONS UPDATE TIME     3600.0        .0
 mediation_integrate: med_read_wrf_chem_emissions: Read emissions for time 2016-02-05_13:00:00
 **WARNING** Time in input file not being checked **WARNING**
Timing for Writing wrfout_d02_2016-02-05_13:00:00 for domain        2:    2.07026 elapsed seconds
Timing for Writing wrfout_d03_2016-02-05_13:00:00 for domain        3:    1.87959 elapsed seconds
Timing for main: time 2016-02-05_13:00:13 on domain   3:    2.32048 elapsed seconds
Timing for main: time 2016-02-05_13:00:26 on domain   3:     .19762 elapsed seconds
Timing for main: time 2016-02-05_13:00:40 on domain   3:     .20142 elapsed seconds
Timing for Writing wrfout_d04_2016-02-05_13:00:00 for domain        4:    2.14247 elapsed seconds
Timing for main: time 2016-02-05_13:00:20 on domain   4:    2.63617 elapsed seconds
Timing for main: time 2016-02-05_13:00:40 on domain   4:     .23237 elapsed seconds
Timing for main: time 2016-02-05_13:00:40 on domain   2:    9.14000 elapsed seconds
Timing for main: time 2016-02-05_13:00:53 on domain   3:     .21433 elapsed seconds
Timing for main: time 2016-02-05_13:01:06 on domain   3:     .20325 elapsed seconds
Timing for main: time 2016-02-05_13:01:20 on domain   3:     .21202 elapsed seconds
Timing for main: time 2016-02-05_13:01:00 on domain   4:     .23762 elapsed seconds
Timing for main: time 2016-02-05_13:01:20 on domain   4:     .23736 elapsed seconds
Timing for main: time 2016-02-05_13:01:20 on domain   2:    1.85325 elapsed seconds
Timing for main: time 2016-02-05_13:01:33 on domain   3:     .21442 elapsed seconds
Timing for main: time 2016-02-05_13:01:46 on domain   3:     .20326 elapsed seconds
Timing for main: time 2016-02-05_13:02:00 on domain   3:     .20326 elapsed seconds
Timing for main: time 2016-02-05_13:01:40 on domain   4:     .23760 elapsed seconds
Timing for main: time 2016-02-05_13:02:00 on domain   4:     .23764 elapsed seconds
Timing for main: time 2016-02-05_13:02:00 on domain   2:    1.84434 elapsed seconds
Timing for main: time 2016-02-05_13:02:00 on domain   1:   15.25291 elapsed seconds
Timing for main: time 2016-02-05_13:02:13 on domain   3:     .21392 elapsed seconds
Timing for main: time 2016-02-05_13:02:26 on domain   3:     .20184 elapsed seconds
Timing for main: time 2016-02-05_13:02:40 on domain   3:     .20168 elapsed seconds
Timing for main: time 2016-02-05_13:02:20 on domain   4:     .23810 elapsed seconds
Timing for main: time 2016-02-05_13:02:40 on domain   4:     .23776 elapsed seconds
Timing for main: time 2016-02-05_13:02:40 on domain   2:    1.88042 elapsed seconds
Timing for main: time 2016-02-05_13:02:53 on domain   3:     .21420 elapsed seconds
Timing for main: time 2016-02-05_13:03:06 on domain   3:     .20175 elapsed seconds
Timing for main: time 2016-02-05_13:03:20 on domain   3:     .20393 elapsed seconds
Timing for main: time 2016-02-05_13:03:00 on domain   4:     .24345 elapsed seconds
Timing for main: time 2016-02-05_13:03:20 on domain   4:     .23960 elapsed seconds
Timing for main: time 2016-02-05_13:03:20 on domain   2:    1.84399 elapsed seconds
Timing for main: time 2016-02-05_13:03:33 on domain   3:     .21422 elapsed seconds
Timing for main: time 2016-02-05_13:03:46 on domain   3:     .20129 elapsed seconds
Timing for main: time 2016-02-05_13:04:00 on domain   3:     .20325 elapsed seconds
Timing for main: time 2016-02-05_13:03:40 on domain   4:     .23834 elapsed seconds
Timing for main: time 2016-02-05_13:04:00 on domain   4:     .23649 elapsed seconds
Timing for main: time 2016-02-05_13:04:00 on domain   2:    1.85366 elapsed seconds
Timing for main: time 2016-02-05_13:04:00 on domain   1:    5.98017 elapsed seconds
Timing for main: time 2016-02-05_13:04:13 on domain   3:     .21422 elapsed seconds
Timing for main: time 2016-02-05_13:04:26 on domain   3:     .20259 elapsed seconds
Timing for main: time 2016-02-05_13:04:40 on domain   3:     .20302 elapsed seconds
Timing for main: time 2016-02-05_13:04:20 on domain   4:     .23736 elapsed seconds
Timing for main: time 2016-02-05_13:04:40 on domain   4:     .23752 elapsed seconds
Timing for main: time 2016-02-05_13:04:40 on domain   2:    1.85723 elapsed seconds
Timing for main: time 2016-02-05_13:04:53 on domain   3:     .21419 elapsed seconds
Timing for main: time 2016-02-05_13:05:06 on domain   3:     .20182 elapsed seconds
Timing for main: time 2016-02-05_13:05:20 on domain   3:     .20493 elapsed seconds
Timing for main: time 2016-02-05_13:05:00 on domain   4:     .24824 elapsed seconds
Timing for main: time 2016-02-05_13:05:20 on domain   4:     .23561 elapsed seconds
Timing for main: time 2016-02-05_13:05:20 on domain   2:    1.85689 elapsed seconds
Timing for main: time 2016-02-05_13:05:33 on domain   3:     .22045 elapsed seconds
Timing for main: time 2016-02-05_13:05:46 on domain   3:     .20107 elapsed seconds
Timing for main: time 2016-02-05_13:06:00 on domain   3:     .20311 elapsed seconds
Timing for main: time 2016-02-05_13:05:40 on domain   4:     .23970 elapsed seconds
Timing for main: time 2016-02-05_13:06:00 on domain   4:     .23579 elapsed seconds
Timing for main: time 2016-02-05_13:06:00 on domain   2:    1.84878 elapsed seconds
Timing for main: time 2016-02-05_13:06:00 on domain   1:    5.94769 elapsed seconds
Timing for main: time 2016-02-05_13:06:13 on domain   3:     .21425 elapsed seconds
Timing for main: time 2016-02-05_13:06:26 on domain   3:     .21121 elapsed seconds
Timing for main: time 2016-02-05_13:06:40 on domain   3:     .20477 elapsed seconds
Timing for main: time 2016-02-05_13:06:20 on domain   4:     .23945 elapsed seconds
Timing for main: time 2016-02-05_13:06:40 on domain   4:     .23828 elapsed seconds
Timing for main: time 2016-02-05_13:06:40 on domain   2:    1.87238 elapsed seconds
Timing for main: time 2016-02-05_13:06:53 on domain   3:     .21427 elapsed seconds
Timing for main: time 2016-02-05_13:07:06 on domain   3:     .20160 elapsed seconds
Timing for main: time 2016-02-05_13:07:20 on domain   3:     .20338 elapsed seconds
Timing for main: time 2016-02-05_13:07:00 on domain   4:     .23756 elapsed seconds
Timing for main: time 2016-02-05_13:07:20 on domain   4:     .23609 elapsed seconds
Timing for main: time 2016-02-05_13:07:20 on domain   2:    1.84169 elapsed seconds
Timing for main: time 2016-02-05_13:07:33 on domain   3:     .21446 elapsed seconds
Timing for main: time 2016-02-05_13:07:46 on domain   3:     .20178 elapsed seconds
Timing for main: time 2016-02-05_13:08:00 on domain   3:     .20271 elapsed seconds
Timing for main: time 2016-02-05_13:07:40 on domain   4:     .23886 elapsed seconds
Timing for main: time 2016-02-05_13:08:00 on domain   4:     .23714 elapsed seconds
Timing for main: time 2016-02-05_13:08:00 on domain   2:    1.84470 elapsed seconds
Timing for main: time 2016-02-05_13:08:00 on domain   1:    5.93571 elapsed seconds
Timing for main: time 2016-02-05_13:08:13 on domain   3:     .21429 elapsed seconds
Timing for main: time 2016-02-05_13:08:26 on domain   3:     .20251 elapsed seconds
Timing for main: time 2016-02-05_13:08:40 on domain   3:     .26205 elapsed seconds
Timing for main: time 2016-02-05_13:08:20 on domain   4:     .23745 elapsed seconds
Timing for main: time 2016-02-05_13:08:40 on domain   4:     .23597 elapsed seconds
Timing for main: time 2016-02-05_13:08:40 on domain   2:    1.94438 elapsed seconds
Timing for main: time 2016-02-05_13:08:53 on domain   3:     .21431 elapsed seconds
Timing for main: time 2016-02-05_13:09:06 on domain   3:     .20186 elapsed seconds
Timing for main: time 2016-02-05_13:09:20 on domain   3:     .20332 elapsed seconds
Timing for main: time 2016-02-05_13:09:00 on domain   4:     .23726 elapsed seconds
Timing for main: time 2016-02-05_13:09:20 on domain   4:     .23718 elapsed seconds
Timing for main: time 2016-02-05_13:09:20 on domain   2:    1.86224 elapsed seconds
Timing for main: time 2016-02-05_13:09:33 on domain   3:     .21457 elapsed seconds
Timing for main: time 2016-02-05_13:09:46 on domain   3:     .20356 elapsed seconds
Timing for main: time 2016-02-05_13:10:00 on domain   3:     .20147 elapsed seconds
Timing for main: time 2016-02-05_13:09:40 on domain   4:     .23987 elapsed seconds
Timing for main: time 2016-02-05_13:10:00 on domain   4:     .24787 elapsed seconds
Timing for main: time 2016-02-05_13:10:00 on domain   2:    1.85736 elapsed seconds
Timing for main: time 2016-02-05_13:10:00 on domain   1:    6.03874 elapsed seconds
Timing for main: time 2016-02-05_13:10:13 on domain   3:     .21433 elapsed seconds
Timing for main: time 2016-02-05_13:10:26 on domain   3:     .20209 elapsed seconds
Timing for main: time 2016-02-05_13:10:40 on domain   3:     .20371 elapsed seconds
Timing for main: time 2016-02-05_13:10:20 on domain   4:     .23750 elapsed seconds
Timing for main: time 2016-02-05_13:10:40 on domain   4:     .23548 elapsed seconds
Timing for main: time 2016-02-05_13:10:40 on domain   2:    1.85891 elapsed seconds
Timing for main: time 2016-02-05_13:10:53 on domain   3:     .21443 elapsed seconds
Timing for main: time 2016-02-05_13:11:06 on domain   3:     .20295 elapsed seconds
Timing for main: time 2016-02-05_13:11:20 on domain   3:     .20355 elapsed seconds
Timing for main: time 2016-02-05_13:11:00 on domain   4:     .23750 elapsed seconds
Timing for main: time 2016-02-05_13:11:20 on domain   4:     .23739 elapsed seconds
Timing for main: time 2016-02-05_13:11:20 on domain   2:    1.84519 elapsed seconds
Timing for main: time 2016-02-05_13:11:33 on domain   3:     .22466 elapsed seconds
Timing for main: time 2016-02-05_13:11:46 on domain   3:     .20376 elapsed seconds
Timing for main: time 2016-02-05_13:12:00 on domain   3:     .20304 elapsed seconds
Timing for main: time 2016-02-05_13:11:40 on domain   4:     .23934 elapsed seconds
Timing for main: time 2016-02-05_13:12:00 on domain   4:     .23733 elapsed seconds
Timing for main: time 2016-02-05_13:12:00 on domain   2:    1.85271 elapsed seconds
Timing for main: time 2016-02-05_13:12:00 on domain   1:    5.94257 elapsed seconds
Timing for main: time 2016-02-05_13:12:13 on domain   3:     .21421 elapsed seconds
Timing for main: time 2016-02-05_13:12:26 on domain   3:     .20174 elapsed seconds
Timing for main: time 2016-02-05_13:12:40 on domain   3:     .20158 elapsed seconds
Timing for main: time 2016-02-05_13:12:20 on domain   4:     .23802 elapsed seconds
Timing for main: time 2016-02-05_13:12:40 on domain   4:     .23966 elapsed seconds
Timing for main: time 2016-02-05_13:12:40 on domain   2:    1.86284 elapsed seconds
Timing for main: time 2016-02-05_13:12:53 on domain   3:     .21440 elapsed seconds
Timing for main: time 2016-02-05_13:13:06 on domain   3:     .20343 elapsed seconds
Timing for main: time 2016-02-05_13:13:20 on domain   3:     .20327 elapsed seconds
Timing for main: time 2016-02-05_13:13:00 on domain   4:     .23900 elapsed seconds
Timing for main: time 2016-02-05_13:13:20 on domain   4:     .23997 elapsed seconds
Timing for main: time 2016-02-05_13:13:20 on domain   2:    1.84579 elapsed seconds
Timing for main: time 2016-02-05_13:13:33 on domain   3:     .21416 elapsed seconds
Timing for main: time 2016-02-05_13:13:46 on domain   3:     .20156 elapsed seconds
Timing for main: time 2016-02-05_13:14:00 on domain   3:     .20309 elapsed seconds
Timing for main: time 2016-02-05_13:13:40 on domain   4:     .23805 elapsed seconds
Timing for main: time 2016-02-05_13:14:00 on domain   4:     .23643 elapsed seconds
Timing for main: time 2016-02-05_13:14:00 on domain   2:    1.84484 elapsed seconds
Timing for main: time 2016-02-05_13:14:00 on domain   1:    5.93129 elapsed seconds
Timing for main: time 2016-02-05_13:14:13 on domain   3:     .21443 elapsed seconds
Timing for main: time 2016-02-05_13:14:26 on domain   3:     .20167 elapsed seconds
Timing for main: time 2016-02-05_13:14:40 on domain   3:     .20499 elapsed seconds
Timing for main: time 2016-02-05_13:14:20 on domain   4:     .23756 elapsed seconds
Timing for main: time 2016-02-05_13:14:40 on domain   4:     .23722 elapsed seconds
Timing for main: time 2016-02-05_13:14:40 on domain   2:    1.87173 elapsed seconds
Timing for main: time 2016-02-05_13:14:53 on domain   3:     .21400 elapsed seconds
Timing for main: time 2016-02-05_13:15:06 on domain   3:     .20207 elapsed seconds
Timing for main: time 2016-02-05_13:15:20 on domain   3:     .20333 elapsed seconds
Timing for main: time 2016-02-05_13:15:00 on domain   4:     .24814 elapsed seconds
Timing for main: time 2016-02-05_13:15:20 on domain   4:     .23623 elapsed seconds
Timing for main: time 2016-02-05_13:15:20 on domain   2:    1.85355 elapsed seconds
Timing for main: time 2016-02-05_13:15:33 on domain   3:     .21413 elapsed seconds
Timing for main: time 2016-02-05_13:15:46 on domain   3:     .20154 elapsed seconds
Timing for main: time 2016-02-05_13:16:00 on domain   3:     .20479 elapsed seconds
Timing for main: time 2016-02-05_13:15:40 on domain   4:     .23692 elapsed seconds
Timing for main: time 2016-02-05_13:16:00 on domain   4:     .23718 elapsed seconds
Timing for main: time 2016-02-05_13:16:00 on domain   2:    1.84379 elapsed seconds
Timing for main: time 2016-02-05_13:16:00 on domain   1:    5.94728 elapsed seconds
Timing for main: time 2016-02-05_13:16:13 on domain   3:     .21423 elapsed seconds
Timing for main: time 2016-02-05_13:16:26 on domain   3:     .20223 elapsed seconds
Timing for main: time 2016-02-05_13:16:40 on domain   3:     .21213 elapsed seconds
Timing for main: time 2016-02-05_13:16:20 on domain   4:     .23858 elapsed seconds
Timing for main: time 2016-02-05_13:16:40 on domain   4:     .23547 elapsed seconds
Timing for main: time 2016-02-05_13:16:40 on domain   2:    1.87331 elapsed seconds
Timing for main: time 2016-02-05_13:16:53 on domain   3:     .21489 elapsed seconds
Timing for main: time 2016-02-05_13:17:06 on domain   3:     .20150 elapsed seconds
Timing for main: time 2016-02-05_13:17:20 on domain   3:     .20331 elapsed seconds
Timing for main: time 2016-02-05_13:17:00 on domain   4:     .23686 elapsed seconds
Timing for main: time 2016-02-05_13:17:20 on domain   4:     .23567 elapsed seconds
Timing for main: time 2016-02-05_13:17:20 on domain   2:    1.84321 elapsed seconds
[...]
Timing for main: time 2016-02-06_02:36:00 on domain   2:    1.84512 elapsed seconds
Timing for main: time 2016-02-06_02:36:00 on domain   1:    5.96317 elapsed seconds
Timing for main: time 2016-02-06_02:36:13 on domain   3:     .21626 elapsed seconds
Timing for main: time 2016-02-06_02:36:26 on domain   3:     .20209 elapsed seconds
Timing for main: time 2016-02-06_02:36:40 on domain   3:     .20417 elapsed seconds
Timing for main: time 2016-02-06_02:36:20 on domain   4:     .23719 elapsed seconds
Timing for main: time 2016-02-06_02:36:40 on domain   4:     .23529 elapsed seconds
Timing for main: time 2016-02-06_02:36:40 on domain   2:    1.91743 elapsed seconds
Timing for main: time 2016-02-06_02:36:53 on domain   3:     .21600 elapsed seconds
Timing for main: time 2016-02-06_02:37:06 on domain   3:     .20286 elapsed seconds
Timing for main: time 2016-02-06_02:37:20 on domain   3:     .20418 elapsed seconds
Timing for main: time 2016-02-06_02:37:00 on domain   4:     .23937 elapsed seconds
Timing for main: time 2016-02-06_02:37:20 on domain   4:     .23725 elapsed seconds
Timing for main: time 2016-02-06_02:37:20 on domain   2:    1.84628 elapsed seconds
Timing for main: time 2016-02-06_02:37:33 on domain   3:     .21605 elapsed seconds
Timing for main: time 2016-02-06_02:37:46 on domain   3:     .20571 elapsed seconds
Timing for main: time 2016-02-06_02:38:00 on domain   3:     .20280 elapsed seconds
Timing for main: time 2016-02-06_02:37:40 on domain   4:     .23659 elapsed seconds
Timing for main: time 2016-02-06_02:38:00 on domain   4:     .23977 elapsed seconds
Timing for main: time 2016-02-06_02:38:00 on domain   2:    1.84628 elapsed seconds
Timing for main: time 2016-02-06_02:38:00 on domain   1:    5.99197 elapsed seconds
Timing for main: time 2016-02-06_02:38:13 on domain   3:     .21653 elapsed seconds
Timing for main: time 2016-02-06_02:38:26 on domain   3:     .20229 elapsed seconds
Timing for main: time 2016-02-06_02:38:40 on domain   3:     .20662 elapsed seconds
Timing for main: time 2016-02-06_02:38:20 on domain   4:     .23709 elapsed seconds
Timing for main: time 2016-02-06_02:38:40 on domain   4:     .23668 elapsed seconds
Timing for main: time 2016-02-06_02:38:40 on domain   2:    1.86099 elapsed seconds
Timing for main: time 2016-02-06_02:38:53 on domain   3:     .21617 elapsed seconds
Timing for main: time 2016-02-06_02:39:06 on domain   3:     .21341 elapsed seconds
Timing for main: time 2016-02-06_02:39:20 on domain   3:     .20183 elapsed seconds
Timing for main: time 2016-02-06_02:39:00 on domain   4:     .23719 elapsed seconds
Timing for main: time 2016-02-06_02:39:20 on domain   4:     .23689 elapsed seconds
Timing for main: time 2016-02-06_02:39:20 on domain   2:    1.85538 elapsed seconds
Timing for main: time 2016-02-06_02:39:33 on domain   3:     .21681 elapsed seconds
Timing for main: time 2016-02-06_02:39:46 on domain   3:     .20189 elapsed seconds
Timing for main: time 2016-02-06_02:40:00 on domain   3:     .20424 elapsed seconds
Timing for main: time 2016-02-06_02:39:40 on domain   4:     .23719 elapsed seconds
Timing for main: time 2016-02-06_02:40:00 on domain   4:     .24857 elapsed seconds
Timing for main: time 2016-02-06_02:40:00 on domain   2:    1.85896 elapsed seconds
Timing for main: time 2016-02-06_02:40:00 on domain   1:    5.98275 elapsed seconds
Timing for main: time 2016-02-06_02:40:13 on domain   3:     .21636 elapsed seconds
Timing for main: time 2016-02-06_02:40:26 on domain   3:     .20226 elapsed seconds
Timing for main: time 2016-02-06_02:40:40 on domain   3:     .20211 elapsed seconds
Timing for main: time 2016-02-06_02:40:20 on domain   4:     .23700 elapsed seconds
Timing for main: time 2016-02-06_02:40:40 on domain   4:     .23964 elapsed seconds
Timing for main: time 2016-02-06_02:40:40 on domain   2:    1.88096 elapsed seconds
Timing for main: time 2016-02-06_02:40:53 on domain   3:     .21575 elapsed seconds
Timing for main: time 2016-02-06_02:41:06 on domain   3:     .20263 elapsed seconds
Timing for main: time 2016-02-06_02:41:20 on domain   3:     .20385 elapsed seconds
Timing for main: time 2016-02-06_02:41:00 on domain   4:     .23733 elapsed seconds
Timing for main: time 2016-02-06_02:41:20 on domain   4:     .23697 elapsed seconds
Timing for main: time 2016-02-06_02:41:20 on domain   2:    1.83597 elapsed seconds
Timing for main: time 2016-02-06_02:41:33 on domain   3:     .21623 elapsed seconds
Timing for main: time 2016-02-06_02:41:46 on domain   3:     .20372 elapsed seconds
Timing for main: time 2016-02-06_02:42:00 on domain   3:     .20392 elapsed seconds
Timing for main: time 2016-02-06_02:41:40 on domain   4:     .23666 elapsed seconds
Timing for main: time 2016-02-06_02:42:00 on domain   4:     .24657 elapsed seconds
Timing for main: time 2016-02-06_02:42:00 on domain   2:    1.85343 elapsed seconds
Timing for main: time 2016-02-06_02:42:00 on domain   1:    5.99014 elapsed seconds
Timing for main: time 2016-02-06_02:42:13 on domain   3:     .21602 elapsed seconds
Timing for main: time 2016-02-06_02:42:26 on domain   3:     .20417 elapsed seconds
Timing for main: time 2016-02-06_02:42:40 on domain   3:     .20408 elapsed seconds
Timing for main: time 2016-02-06_02:42:20 on domain   4:     .23688 elapsed seconds
Timing for main: time 2016-02-06_02:42:40 on domain   4:     .23601 elapsed seconds
Timing for main: time 2016-02-06_02:42:40 on domain   2:    1.85659 elapsed seconds
Timing for main: time 2016-02-06_02:42:53 on domain   3:     .21584 elapsed seconds
Timing for main: time 2016-02-06_02:43:06 on domain   3:     .20376 elapsed seconds
Timing for main: time 2016-02-06_02:43:20 on domain   3:     .20438 elapsed seconds
Timing for main: time 2016-02-06_02:43:00 on domain   4:     .23682 elapsed seconds
Timing for main: time 2016-02-06_02:43:20 on domain   4:     .23873 elapsed seconds
Timing for main: time 2016-02-06_02:43:20 on domain   2:    1.84283 elapsed seconds
Timing for main: time 2016-02-06_02:43:33 on domain   3:     .21568 elapsed seconds
Timing for main: time 2016-02-06_02:43:46 on domain   3:     .20394 elapsed seconds
Timing for main: time 2016-02-06_02:44:00 on domain   3:     .20436 elapsed seconds
Timing for main: time 2016-02-06_02:43:40 on domain   4:     .23659 elapsed seconds
Timing for main: time 2016-02-06_02:44:00 on domain   4:     .23657 elapsed seconds
Timing for main: time 2016-02-06_02:44:00 on domain   2:    1.84500 elapsed seconds
Timing for main: time 2016-02-06_02:44:00 on domain   1:    5.92842 elapsed seconds
Timing for main: time 2016-02-06_02:44:13 on domain   3:     .22517 elapsed seconds
Timing for main: time 2016-02-06_02:44:26 on domain   3:     .20373 elapsed seconds
Timing for main: time 2016-02-06_02:44:40 on domain   3:     .20428 elapsed seconds
Timing for main: time 2016-02-06_02:44:20 on domain   4:     .23663 elapsed seconds
Timing for main: time 2016-02-06_02:44:40 on domain   4:     .23675 elapsed seconds
Timing for main: time 2016-02-06_02:44:40 on domain   2:    1.86369 elapsed seconds
Timing for main: time 2016-02-06_02:44:53 on domain   3:     .21614 elapsed seconds
Timing for main: time 2016-02-06_02:45:06 on domain   3:     .20315 elapsed seconds
Timing for main: time 2016-02-06_02:45:20 on domain   3:     .20502 elapsed seconds
Timing for main: time 2016-02-06_02:45:00 on domain   4:     .24747 elapsed seconds
Timing for main: time 2016-02-06_02:45:20 on domain   4:     .23653 elapsed seconds
Timing for main: time 2016-02-06_02:45:20 on domain   2:    1.86513 elapsed seconds
Timing for main: time 2016-02-06_02:45:33 on domain   3:     .21815 elapsed seconds
Timing for main: time 2016-02-06_02:45:46 on domain   3:     .20404 elapsed seconds
Timing for main: time 2016-02-06_02:46:00 on domain   3:     .20400 elapsed seconds
Timing for main: time 2016-02-06_02:45:40 on domain   4:     .23716 elapsed seconds
Timing for main: time 2016-02-06_02:46:00 on domain   4:     .23808 elapsed seconds
Timing for main: time 2016-02-06_02:46:00 on domain   2:    1.86225 elapsed seconds
Timing for main: time 2016-02-06_02:46:00 on domain   1:    5.97855 elapsed seconds
Timing for main: time 2016-02-06_02:46:13 on domain   3:     .21643 elapsed seconds
Timing for main: time 2016-02-06_02:46:26 on domain   3:     .20342 elapsed seconds
Timing for main: time 2016-02-06_02:46:40 on domain   3:     .20391 elapsed seconds
Timing for main: time 2016-02-06_02:46:20 on domain   4:     .23688 elapsed seconds
Timing for main: time 2016-02-06_02:46:40 on domain   4:     .23673 elapsed seconds
Timing for main: time 2016-02-06_02:46:40 on domain   2:    1.85667 elapsed seconds
Timing for main: time 2016-02-06_02:46:53 on domain   3:     .21566 elapsed seconds
Timing for main: time 2016-02-06_02:47:06 on domain   3:     .20399 elapsed seconds
Timing for main: time 2016-02-06_02:47:20 on domain   3:     .20429 elapsed seconds
Timing for main: time 2016-02-06_02:47:00 on domain   4:     .23651 elapsed seconds
Timing for main: time 2016-02-06_02:47:20 on domain   4:     .28057 elapsed seconds
Timing for main: time 2016-02-06_02:47:20 on domain   2:    1.88555 elapsed seconds
Timing for main: time 2016-02-06_02:47:33 on domain   3:     .21537 elapsed seconds
Timing for main: time 2016-02-06_02:47:46 on domain   3:     .20440 elapsed seconds
Timing for main: time 2016-02-06_02:48:00 on domain   3:     .20372 elapsed seconds
Timing for main: time 2016-02-06_02:47:40 on domain   4:     .24109 elapsed seconds
Timing for main: time 2016-02-06_02:48:00 on domain   4:     .23600 elapsed seconds
Timing for main: time 2016-02-06_02:48:00 on domain   2:    1.89319 elapsed seconds
Timing for main: time 2016-02-06_02:48:00 on domain   1:    6.03055 elapsed seconds
Timing for main: time 2016-02-06_02:48:13 on domain   3:     .25174 elapsed seconds
Timing for main: time 2016-02-06_02:48:26 on domain   3:     .25776 elapsed seconds
Timing for main: time 2016-02-06_02:48:40 on domain   3:     .20581 elapsed seconds
Timing for main: time 2016-02-06_02:48:20 on domain   4:     .23790 elapsed seconds
Timing for main: time 2016-02-06_02:48:40 on domain   4:     .23679 elapsed seconds
Timing for main: time 2016-02-06_02:48:40 on domain   2:    1.95784 elapsed seconds
Timing for main: time 2016-02-06_02:48:53 on domain   3:     .21642 elapsed seconds
Timing for main: time 2016-02-06_02:49:06 on domain   3:     .20382 elapsed seconds
Timing for main: time 2016-02-06_02:49:20 on domain   3:     .21319 elapsed seconds
Timing for main: time 2016-02-06_02:49:00 on domain   4:     .23682 elapsed seconds
Timing for main: time 2016-02-06_02:49:20 on domain   4:     .23681 elapsed seconds
Timing for main: time 2016-02-06_02:49:20 on domain   2:    1.85014 elapsed seconds
Timing for main: time 2016-02-06_02:49:33 on domain   3:     .21595 elapsed seconds
Timing for main: time 2016-02-06_02:49:46 on domain   3:     .20383 elapsed seconds
Timing for main: time 2016-02-06_02:50:00 on domain   3:     .20353 elapsed seconds
Timing for main: time 2016-02-06_02:49:40 on domain   4:     .23684 elapsed seconds
Timing for main: time 2016-02-06_02:50:00 on domain   4:     .24889 elapsed seconds
Timing for main: time 2016-02-06_02:50:00 on domain   2:    1.85597 elapsed seconds
Timing for main: time 2016-02-06_02:50:00 on domain   1:    6.06055 elapsed seconds
Timing for main: time 2016-02-06_02:50:13 on domain   3:     .21611 elapsed seconds
Timing for main: time 2016-02-06_02:50:26 on domain   3:     .20418 elapsed seconds
Timing for main: time 2016-02-06_02:50:40 on domain   3:     .20431 elapsed seconds
Timing for main: time 2016-02-06_02:50:20 on domain   4:     .23709 elapsed seconds
Timing for main: time 2016-02-06_02:50:40 on domain   4:     .23771 elapsed seconds
Timing for main: time 2016-02-06_02:50:40 on domain   2:    1.92236 elapsed seconds
Timing for main: time 2016-02-06_02:50:53 on domain   3:     .21584 elapsed seconds
Timing for main: time 2016-02-06_02:51:06 on domain   3:     .20369 elapsed seconds
Timing for main: time 2016-02-06_02:51:20 on domain   3:     .20483 elapsed seconds
Timing for main: time 2016-02-06_02:51:00 on domain   4:     .23682 elapsed seconds
Timing for main: time 2016-02-06_02:51:20 on domain   4:     .23672 elapsed seconds
Timing for main: time 2016-02-06_02:51:20 on domain   2:    1.83930 elapsed seconds
Timing for main: time 2016-02-06_02:51:33 on domain   3:     .21582 elapsed seconds
Timing for main: time 2016-02-06_02:51:46 on domain   3:     .20384 elapsed seconds
Timing for main: time 2016-02-06_02:52:00 on domain   3:     .20455 elapsed seconds
Timing for main: time 2016-02-06_02:51:40 on domain   4:     .23689 elapsed seconds
Timing for main: time 2016-02-06_02:52:00 on domain   4:     .24342 elapsed seconds
Timing for main: time 2016-02-06_02:52:00 on domain   2:    1.84739 elapsed seconds
Timing for main: time 2016-02-06_02:52:00 on domain   1:    5.99227 elapsed seconds
Timing for main: time 2016-02-06_02:52:13 on domain   3:     .21611 elapsed seconds
Timing for main: time 2016-02-06_02:52:26 on domain   3:     .20306 elapsed seconds
Timing for main: time 2016-02-06_02:52:40 on domain   3:     .20415 elapsed seconds
Timing for main: time 2016-02-06_02:52:20 on domain   4:     .23724 elapsed seconds
Timing for main: time 2016-02-06_02:52:40 on domain   4:     .23649 elapsed seconds
Timing for main: time 2016-02-06_02:52:40 on domain   2:    1.85687 elapsed seconds
Timing for main: time 2016-02-06_02:52:53 on domain   3:     .21631 elapsed seconds
Timing for main: time 2016-02-06_02:53:06 on domain   3:     .20310 elapsed seconds
Timing for main: time 2016-02-06_02:53:20 on domain   3:     .20493 elapsed seconds
Timing for main: time 2016-02-06_02:53:00 on domain   4:     .23668 elapsed seconds
Timing for main: time 2016-02-06_02:53:20 on domain   4:     .23673 elapsed seconds
Timing for main: time 2016-02-06_02:53:20 on domain   2:    1.84158 elapsed seconds
Timing for main: time 2016-02-06_02:53:33 on domain   3:     .21556 elapsed seconds
Timing for main: time 2016-02-06_02:53:46 on domain   3:     .20422 elapsed seconds
Timing for main: time 2016-02-06_02:54:00 on domain   3:     .20355 elapsed seconds
Timing for main: time 2016-02-06_02:53:40 on domain   4:     .23816 elapsed seconds
Timing for main: time 2016-02-06_02:54:00 on domain   4:     .23771 elapsed seconds
Timing for main: time 2016-02-06_02:54:00 on domain   2:    1.84834 elapsed seconds
Timing for main: time 2016-02-06_02:54:00 on domain   1:    5.94124 elapsed seconds
Timing for main: time 2016-02-06_02:54:13 on domain   3:     .21544 elapsed seconds
Timing for main: time 2016-02-06_02:54:26 on domain   3:     .21362 elapsed seconds
Timing for main: time 2016-02-06_02:54:40 on domain   3:     .20480 elapsed seconds
Timing for main: time 2016-02-06_02:54:20 on domain   4:     .23702 elapsed seconds
Timing for main: time 2016-02-06_02:54:40 on domain   4:     .23654 elapsed seconds
Timing for main: time 2016-02-06_02:54:40 on domain   2:    1.86458 elapsed seconds
Timing for main: time 2016-02-06_02:54:53 on domain   3:     .21587 elapsed seconds
Timing for main: time 2016-02-06_02:55:06 on domain   3:     .20353 elapsed seconds
Timing for main: time 2016-02-06_02:55:20 on domain   3:     .20464 elapsed seconds
Timing for main: time 2016-02-06_02:55:00 on domain   4:     .24741 elapsed seconds
Timing for main: time 2016-02-06_02:55:20 on domain   4:     .23686 elapsed seconds
Timing for main: time 2016-02-06_02:55:20 on domain   2:    1.85279 elapsed seconds
Timing for main: time 2016-02-06_02:55:33 on domain   3:     .21748 elapsed seconds
Timing for main: time 2016-02-06_02:55:46 on domain   3:     .20344 elapsed seconds
Timing for main: time 2016-02-06_02:56:00 on domain   3:     .20405 elapsed seconds
Timing for main: time 2016-02-06_02:55:40 on domain   4:     .23683 elapsed seconds
Timing for main: time 2016-02-06_02:56:00 on domain   4:     .23704 elapsed seconds
Timing for main: time 2016-02-06_02:56:00 on domain   2:    1.85780 elapsed seconds
Timing for main: time 2016-02-06_02:56:00 on domain   1:    5.96153 elapsed seconds
Timing for main: time 2016-02-06_02:56:13 on domain   3:     .21553 elapsed seconds
Timing for main: time 2016-02-06_02:56:26 on domain   3:     .20387 elapsed seconds
Timing for main: time 2016-02-06_02:56:40 on domain   3:     .20403 elapsed seconds
Timing for main: time 2016-02-06_02:56:20 on domain   4:     .23670 elapsed seconds
Timing for main: time 2016-02-06_02:56:40 on domain   4:     .23810 elapsed seconds
Timing for main: time 2016-02-06_02:56:40 on domain   2:    1.85934 elapsed seconds
Timing for main: time 2016-02-06_02:56:53 on domain   3:     .21474 elapsed seconds
Timing for main: time 2016-02-06_02:57:06 on domain   3:     .20232 elapsed seconds
Timing for main: time 2016-02-06_02:57:20 on domain   3:     .20409 elapsed seconds
Timing for main: time 2016-02-06_02:57:00 on domain   4:     .23634 elapsed seconds
Timing for main: time 2016-02-06_02:57:20 on domain   4:     .24036 elapsed seconds
Timing for main: time 2016-02-06_02:57:20 on domain   2:    1.84555 elapsed seconds
Timing for main: time 2016-02-06_02:57:33 on domain   3:     .21524 elapsed seconds
Timing for main: time 2016-02-06_02:57:46 on domain   3:     .20398 elapsed seconds
Timing for main: time 2016-02-06_02:58:00 on domain   3:     .20360 elapsed seconds
Timing for main: time 2016-02-06_02:57:40 on domain   4:     .23845 elapsed seconds
Timing for main: time 2016-02-06_02:58:00 on domain   4:     .23910 elapsed seconds
Timing for main: time 2016-02-06_02:58:00 on domain   2:    1.84506 elapsed seconds
Timing for main: time 2016-02-06_02:58:00 on domain   1:    5.93361 elapsed seconds
  photolysis_driver: called for domain  1
Timing for main: time 2016-02-06_02:58:13 on domain   3:     .21570 elapsed seconds
Timing for main: time 2016-02-06_02:58:26 on domain   3:     .20372 elapsed seconds
Timing for main: time 2016-02-06_02:58:40 on domain   3:     .20438 elapsed seconds
Timing for main: time 2016-02-06_02:58:20 on domain   4:     .23655 elapsed seconds
Timing for main: time 2016-02-06_02:58:40 on domain   4:     .23977 elapsed seconds
Timing for main: time 2016-02-06_02:58:40 on domain   2:    1.86235 elapsed seconds
Timing for main: time 2016-02-06_02:58:53 on domain   3:     .21459 elapsed seconds
Timing for main: time 2016-02-06_02:59:06 on domain   3:     .20749 elapsed seconds
Timing for main: time 2016-02-06_02:59:20 on domain   3:     .20338 elapsed seconds
Timing for main: time 2016-02-06_02:59:00 on domain   4:     .23702 elapsed seconds
Timing for main: time 2016-02-06_02:59:20 on domain   4:     .23609 elapsed seconds
Timing for main: time 2016-02-06_02:59:20 on domain   2:    1.84270 elapsed seconds
  photolysis_driver: called for domain  2
Timing for main: time 2016-02-06_02:59:33 on domain   3:     .22448 elapsed seconds
Timing for main: time 2016-02-06_02:59:46 on domain   3:     .20382 elapsed seconds
  photolysis_driver: called for domain  3
Timing for main: time 2016-02-06_03:00:00 on domain   3:    1.41916 elapsed seconds
Timing for Writing wrfout_d03_2016-02-06_03:00:00 for domain        3:    1.71699 elapsed seconds
Timing for main: time 2016-02-06_02:59:40 on domain   4:     .28159 elapsed seconds
  photolysis_driver: called for domain  4
Timing for main: time 2016-02-06_03:00:00 on domain   4:    1.64775 elapsed seconds
Timing for Writing wrfout_d04_2016-02-06_03:00:00 for domain        4:    1.91552 elapsed seconds
Timing for main: time 2016-02-06_03:00:00 on domain   2:    9.56044 elapsed seconds
Timing for Writing wrfout_d02_2016-02-06_03:00:00 for domain        2:    2.76626 elapsed seconds
Timing for main: time 2016-02-06_03:00:00 on domain   1:   17.19666 elapsed seconds
Timing for Writing wrfout_d01_2016-02-06_03:00:00 for domain        1:    2.32933 elapsed seconds
 d01 2016-02-06_03:00:00 wrf: SUCCESS COMPLETE WRF
