taskid: 0 hostname: p10a51.pbm.ihost.com
  Ntasks in X  6 , ntasks in Y  10
 Setting blank km_opt entries to domain #1 values.
  --> The km_opt entry in the namelist.input is now max_domains.
 Setting blank diff_opt entries to domain #1 values.
  --> The diff_opt entry in the namelist.input is now max_domains.
 --- WARNING: traj_opt is zero, but num_traj is not zero; setting num_traj to zero.
 --- NOTE: hypsometric_opt is 2, setting adjust_heights = F
 --- NOTE: sst_update is 0, setting io_form_auxinput4 = 0 and auxinput4_interval = 0 for all domains
 --- NOTE: sst_update is 0, setting io_form_auxinput4 = 0 and auxinput4_interval = 0 for all domains
 --- NOTE: sst_update is 0, setting io_form_auxinput4 = 0 and auxinput4_interval = 0 for all domains
 --- NOTE: sst_update is 0, setting io_form_auxinput4 = 0 and auxinput4_interval = 0 for all domains
 --- NOTE: grid_fdda is 0 for domain      1, setting gfdda interval and ending time to 0 for that domain.
 --- NOTE: both grid_sfdda and pxlsm_soil_nudge are 0 for domain      1, setting sgfdda interval and ending time to 0 for that domain.
 --- NOTE: obs_nudge_opt is 0 for domain      1, setting obs nudging interval and ending time to 0 for that domain.
 --- NOTE: grid_fdda is 0 for domain      2, setting gfdda interval and ending time to 0 for that domain.
 --- NOTE: both grid_sfdda and pxlsm_soil_nudge are 0 for domain      2, setting sgfdda interval and ending time to 0 for that domain.
 --- NOTE: obs_nudge_opt is 0 for domain      2, setting obs nudging interval and ending time to 0 for that domain.
 --- NOTE: grid_fdda is 0 for domain      3, setting gfdda interval and ending time to 0 for that domain.
 --- NOTE: both grid_sfdda and pxlsm_soil_nudge are 0 for domain      3, setting sgfdda interval and ending time to 0 for that domain.
 --- NOTE: obs_nudge_opt is 0 for domain      3, setting obs nudging interval and ending time to 0 for that domain.
 --- NOTE: grid_fdda is 0 for domain      4, setting gfdda interval and ending time to 0 for that domain.
 --- NOTE: both grid_sfdda and pxlsm_soil_nudge are 0 for domain      4, setting sgfdda interval and ending time to 0 for that domain.
 --- NOTE: obs_nudge_opt is 0 for domain      4, setting obs nudging interval and ending time to 0 for that domain.
 bl_pbl_physics /= 4, implies mfshconv must be 0, resetting
 --- NOTE: num_soil_layers has been set to      4
 WRF V3.6 MODEL
  *************************************
  Parent domain
  ids,ide,jds,jde  1 271 1 181
  ims,ime,jms,jme  -4 52 -4 25
  ips,ipe,jps,jpe  1 45 1 18
  *************************************
 DYNAMICS OPTION: Eulerian Mass Coordinate
    alloc_space_field: domain  1 ,  169625312  bytes allocated
   med_initialdata_input: calling input_input
Timing for processing wrfinput file (stream 0) for domain        1:    4.00160 elapsed seconds
 INPUT LandUse = "USGS"
  LANDUSE TYPE = "USGS" FOUND 33  CATEGORIES 2  SEASONS WATER CATEGORY =  16  SNOW CATEGORY =  24
 INITIALIZE THREE Noah LSM RELATED TABLES
  LANDUSE TYPE = USGS FOUND 27  CATEGORIES
  INPUT SOIL TEXTURE CLASSIFICATION = STAS
  SOIL TEXTURE CLASSIFICATION = STAS FOUND 19  CATEGORIES
 *********************************************************************
 *             PROGRAM:WRF/CHEM V3.6 MODEL
 *                                                                   *
 *    PLEASE REPORT ANY BUGS TO WRF/CHEM HELP at                     *
 *                                                                   *
 *              wrfchemhelp.gsd@noaa.gov                             *
 *                                                                   *
 *********************************************************************
 WARNING: dust option 1 currently works only with the GOCART aerosol option.
 WARNING: sea salt option 1 currently works only with the GOCART aerosol option.
  *************************************
  Nesting domain
  ids,ide,jds,jde  1 361 1 253
  ims,ime,jms,jme  -4 72 -4 36
  ips,ipe,jps,jpe  1 60 1 26
  INTERMEDIATE domain
  ids,ide,jds,jde  74 199 47 136
  ims,ime,jms,jme  69 105 42 67
  ips,ipe,jps,jpe  72 95 45 57
  *************************************
 d01 2016-02-05_12:00:00  alloc_space_field: domain  2 ,  307118188  bytes allocated
 d01 2016-02-05_12:00:00  alloc_space_field: domain  2 ,  12117352  bytes allocated
 d01 2016-02-05_12:00:00 *** Initializing nest domain # 2 from an input file. ***
 d01 2016-02-05_12:00:00 med_initialdata_input: calling input_input
Timing for processing wrfinput file (stream 0) for domain        2:    6.31596 elapsed seconds
 INPUT LandUse = "USGS"
  LANDUSE TYPE = "USGS" FOUND 33  CATEGORIES 2  SEASONS WATER CATEGORY =  16  SNOW CATEGORY =  24
 INITIALIZE THREE Noah LSM RELATED TABLES
  LANDUSE TYPE = USGS FOUND 27  CATEGORIES
  INPUT SOIL TEXTURE CLASSIFICATION = STAS
  SOIL TEXTURE CLASSIFICATION = STAS FOUND 19  CATEGORIES
 *********************************************************************
 *             PROGRAM:WRF/CHEM V3.6 MODEL
 *                                                                   *
 *    PLEASE REPORT ANY BUGS TO WRF/CHEM HELP at                     *
 *                                                                   *
 *              wrfchemhelp.gsd@noaa.gov                             *
 *                                                                   *
 *********************************************************************
 WARNING: dust option 1 currently works only with the GOCART aerosol option.
 WARNING: sea salt option 1 currently works only with the GOCART aerosol option.
 INPUT LandUse = "USGS"
  LANDUSE TYPE = "USGS" FOUND 33  CATEGORIES 2  SEASONS WATER CATEGORY =  16  SNOW CATEGORY =  24
 INITIALIZE THREE Noah LSM RELATED TABLES
  LANDUSE TYPE = USGS FOUND 27  CATEGORIES
  INPUT SOIL TEXTURE CLASSIFICATION = STAS
  SOIL TEXTURE CLASSIFICATION = STAS FOUND 19  CATEGORIES
 *********************************************************************
 *             PROGRAM:WRF/CHEM V3.6 MODEL
 *                                                                   *
 *    PLEASE REPORT ANY BUGS TO WRF/CHEM HELP at                     *
 *                                                                   *
 *              wrfchemhelp.gsd@noaa.gov                             *
 *                                                                   *
 *********************************************************************
 WARNING: dust option 1 currently works only with the GOCART aerosol option.
 WARNING: sea salt option 1 currently works only with the GOCART aerosol option.
 INPUT LandUse = "USGS"
  LANDUSE TYPE = "USGS" FOUND 33  CATEGORIES 2  SEASONS WATER CATEGORY =  16  SNOW CATEGORY =  24
 INITIALIZE THREE Noah LSM RELATED TABLES
  LANDUSE TYPE = USGS FOUND 27  CATEGORIES
  INPUT SOIL TEXTURE CLASSIFICATION = STAS
  SOIL TEXTURE CLASSIFICATION = STAS FOUND 19  CATEGORIES
 *********************************************************************
 *             PROGRAM:WRF/CHEM V3.6 MODEL
 *                                                                   *
 *    PLEASE REPORT ANY BUGS TO WRF/CHEM HELP at                     *
 *                                                                   *
 *              wrfchemhelp.gsd@noaa.gov                             *
 *                                                                   *
 *********************************************************************
 WARNING: dust option 1 currently works only with the GOCART aerosol option.
 WARNING: sea salt option 1 currently works only with the GOCART aerosol option.
Timing for Writing wrfout_d01_2016-02-05_12:00:00 for domain        1:    1.18375 elapsed seconds
  mediation_integrate: med_read_wrf_chem_emissions: Open file wrfchemi_12z_d01
  HOURLY EMISSIONS UPDATE TIME         .0        .0
 mediation_integrate: med_read_wrf_chem_emissions: Read emissions for time 2016-02-05_12:00:00
 **WARNING** Time in input file not being checked **WARNING**
Timing for processing lateral boundary for domain        1:    2.96751 elapsed seconds
  Tile Strategy is not specified. Assuming 1D-Y
 WRF TILE   1 IS      1 IE     45 JS      1 JE     18
 WRF NUMBER OF TILES =   1
  photolysis_driver: called for domain  1
  *************************************
  Nesting domain
  ids,ide,jds,jde  1 307 1 241
  ims,ime,jms,jme  -4 63 -4 36
  ips,ipe,jps,jpe  1 51 1 24
  INTERMEDIATE domain
  ids,ide,jds,jde  124 231 35 120
  ims,ime,jms,jme  119 152 30 54
  ips,ipe,jps,jpe  122 142 33 44
  *************************************
 d02 2016-02-05_12:00:00  alloc_space_field: domain  3 ,  271797232  bytes allocated
 d02 2016-02-05_12:00:00  alloc_space_field: domain  3 ,  10706600  bytes allocated
 d02 2016-02-05_12:00:00 *** Initializing nest domain # 3 from an input file. ***
 d02 2016-02-05_12:00:00 med_initialdata_input: calling input_input
Timing for processing wrfinput file (stream 0) for domain        3:    5.22200 elapsed seconds
 INPUT LandUse = "USGS"
  LANDUSE TYPE = "USGS" FOUND 33  CATEGORIES 2  SEASONS WATER CATEGORY =  16  SNOW CATEGORY =  24
 INITIALIZE THREE Noah LSM RELATED TABLES
  LANDUSE TYPE = USGS FOUND 27  CATEGORIES
  INPUT SOIL TEXTURE CLASSIFICATION = STAS
  SOIL TEXTURE CLASSIFICATION = STAS FOUND 19  CATEGORIES
 *********************************************************************
 *             PROGRAM:WRF/CHEM V3.6 MODEL
 *                                                                   *
 *    PLEASE REPORT ANY BUGS TO WRF/CHEM HELP at                     *
 *                                                                   *
 *              wrfchemhelp.gsd@noaa.gov                             *
 *                                                                   *
 *********************************************************************
 WARNING: dust option 1 currently works only with the GOCART aerosol option.
 WARNING: sea salt option 1 currently works only with the GOCART aerosol option.
 INPUT LandUse = "USGS"
  LANDUSE TYPE = "USGS" FOUND 33  CATEGORIES 2  SEASONS WATER CATEGORY =  16  SNOW CATEGORY =  24
 INITIALIZE THREE Noah LSM RELATED TABLES
  LANDUSE TYPE = USGS FOUND 27  CATEGORIES
  INPUT SOIL TEXTURE CLASSIFICATION = STAS
  SOIL TEXTURE CLASSIFICATION = STAS FOUND 19  CATEGORIES
 *********************************************************************
 *             PROGRAM:WRF/CHEM V3.6 MODEL
 *                                                                   *
 *    PLEASE REPORT ANY BUGS TO WRF/CHEM HELP at                     *
 *                                                                   *
 *              wrfchemhelp.gsd@noaa.gov                             *
 *                                                                   *
 *********************************************************************
 WARNING: dust option 1 currently works only with the GOCART aerosol option.
 WARNING: sea salt option 1 currently works only with the GOCART aerosol option.
 INPUT LandUse = "USGS"
  LANDUSE TYPE = "USGS" FOUND 33  CATEGORIES 2  SEASONS WATER CATEGORY =  16  SNOW CATEGORY =  24
 INITIALIZE THREE Noah LSM RELATED TABLES
  LANDUSE TYPE = USGS FOUND 27  CATEGORIES
  INPUT SOIL TEXTURE CLASSIFICATION = STAS
  SOIL TEXTURE CLASSIFICATION = STAS FOUND 19  CATEGORIES
 *********************************************************************
 *             PROGRAM:WRF/CHEM V3.6 MODEL
 *                                                                   *
 *    PLEASE REPORT ANY BUGS TO WRF/CHEM HELP at                     *
 *                                                                   *
 *              wrfchemhelp.gsd@noaa.gov                             *
 *                                                                   *
 *********************************************************************
 WARNING: dust option 1 currently works only with the GOCART aerosol option.
 WARNING: sea salt option 1 currently works only with the GOCART aerosol option.
  *************************************
  Nesting domain
  ids,ide,jds,jde  1 217 1 388
  ims,ime,jms,jme  -4 48 -4 51
  ips,ipe,jps,jpe  1 36 1 39
  INTERMEDIATE domain
  ids,ide,jds,jde  225 302 83 217
  ims,ime,jms,jme  220 248 78 107
  ips,ipe,jps,jpe  223 238 81 97
  *************************************
 d02 2016-02-05_12:00:00  alloc_space_field: domain  4 ,  288407572  bytes allocated
 d02 2016-02-05_12:00:00  alloc_space_field: domain  4 ,  10958520  bytes allocated
 d02 2016-02-05_12:00:00 *** Initializing nest domain # 4 from an input file. ***
 d02 2016-02-05_12:00:00 med_initialdata_input: calling input_input
Timing for processing wrfinput file (stream 0) for domain        4:    6.18211 elapsed seconds
 INPUT LandUse = "USGS"
  LANDUSE TYPE = "USGS" FOUND 33  CATEGORIES 2  SEASONS WATER CATEGORY =  16  SNOW CATEGORY =  24
 INITIALIZE THREE Noah LSM RELATED TABLES
  LANDUSE TYPE = USGS FOUND 27  CATEGORIES
  INPUT SOIL TEXTURE CLASSIFICATION = STAS
  SOIL TEXTURE CLASSIFICATION = STAS FOUND 19  CATEGORIES
 *********************************************************************
 *             PROGRAM:WRF/CHEM V3.6 MODEL
 *                                                                   *
 *    PLEASE REPORT ANY BUGS TO WRF/CHEM HELP at                     *
 *                                                                   *
 *              wrfchemhelp.gsd@noaa.gov                             *
 *                                                                   *
 *********************************************************************
 WARNING: dust option 1 currently works only with the GOCART aerosol option.
 WARNING: sea salt option 1 currently works only with the GOCART aerosol option.
 INPUT LandUse = "USGS"
  LANDUSE TYPE = "USGS" FOUND 33  CATEGORIES 2  SEASONS WATER CATEGORY =  16  SNOW CATEGORY =  24
 INITIALIZE THREE Noah LSM RELATED TABLES
  LANDUSE TYPE = USGS FOUND 27  CATEGORIES
  INPUT SOIL TEXTURE CLASSIFICATION = STAS
  SOIL TEXTURE CLASSIFICATION = STAS FOUND 19  CATEGORIES
 *********************************************************************
 *             PROGRAM:WRF/CHEM V3.6 MODEL
 *                                                                   *
 *    PLEASE REPORT ANY BUGS TO WRF/CHEM HELP at                     *
 *                                                                   *
 *              wrfchemhelp.gsd@noaa.gov                             *
 *                                                                   *
 *********************************************************************
 WARNING: dust option 1 currently works only with the GOCART aerosol option.
 WARNING: sea salt option 1 currently works only with the GOCART aerosol option.
 INPUT LandUse = "USGS"
  LANDUSE TYPE = "USGS" FOUND 33  CATEGORIES 2  SEASONS WATER CATEGORY =  16  SNOW CATEGORY =  24
 INITIALIZE THREE Noah LSM RELATED TABLES
  LANDUSE TYPE = USGS FOUND 27  CATEGORIES
  INPUT SOIL TEXTURE CLASSIFICATION = STAS
  SOIL TEXTURE CLASSIFICATION = STAS FOUND 19  CATEGORIES
 *********************************************************************
 *             PROGRAM:WRF/CHEM V3.6 MODEL
 *                                                                   *
 *    PLEASE REPORT ANY BUGS TO WRF/CHEM HELP at                     *
 *                                                                   *
 *              wrfchemhelp.gsd@noaa.gov                             *
 *                                                                   *
 *********************************************************************
 WARNING: dust option 1 currently works only with the GOCART aerosol option.
 WARNING: sea salt option 1 currently works only with the GOCART aerosol option.
Timing for Writing wrfout_d02_2016-02-05_12:00:00 for domain        2:    1.77861 elapsed seconds
  mediation_integrate: med_read_wrf_chem_emissions: Open file wrfchemi_12z_d02
  HOURLY EMISSIONS UPDATE TIME         .0        .0
 mediation_integrate: med_read_wrf_chem_emissions: Read emissions for time 2016-02-05_12:00:00
 **WARNING** Time in input file not being checked **WARNING**
  Tile Strategy is not specified. Assuming 1D-Y
 WRF TILE   1 IS      1 IE     60 JS      1 JE     26
 WRF NUMBER OF TILES =   1
  photolysis_driver: called for domain  2
Timing for Writing wrfout_d03_2016-02-05_12:00:00 for domain        3:    1.54298 elapsed seconds
  mediation_integrate: med_read_wrf_chem_emissions: Open file wrfchemi_12z_d03
  HOURLY EMISSIONS UPDATE TIME         .0        .0
 mediation_integrate: med_read_wrf_chem_emissions: Read emissions for time 2016-02-05_12:00:00
 **WARNING** Time in input file not being checked **WARNING**
  Tile Strategy is not specified. Assuming 1D-Y
 WRF TILE   1 IS      1 IE     51 JS      1 JE     24
 WRF NUMBER OF TILES =   1
  photolysis_driver: called for domain  3
Timing for main: time 2016-02-05_12:00:13 on domain   3:    6.92306 elapsed seconds
Timing for main: time 2016-02-05_12:00:26 on domain   3:     .32940 elapsed seconds
Timing for main: time 2016-02-05_12:00:40 on domain   3:     .40639 elapsed seconds
Timing for Writing wrfout_d04_2016-02-05_12:00:00 for domain        4:    1.69761 elapsed seconds
  mediation_integrate: med_read_wrf_chem_emissions: Open file wrfchemi_12z_d04
  HOURLY EMISSIONS UPDATE TIME         .0        .0
 mediation_integrate: med_read_wrf_chem_emissions: Read emissions for time 2016-02-05_12:00:00
 **WARNING** Time in input file not being checked **WARNING**
  Tile Strategy is not specified. Assuming 1D-Y
 WRF TILE   1 IS      1 IE     36 JS      1 JE     39
 WRF NUMBER OF TILES =   1
  photolysis_driver: called for domain  4
Timing for main: time 2016-02-05_12:00:20 on domain   4:    8.00840 elapsed seconds
Timing for main: time 2016-02-05_12:00:40 on domain   4:     .56291 elapsed seconds
Timing for main: time 2016-02-05_12:00:40 on domain   2:   40.86097 elapsed seconds
Timing for main: time 2016-02-05_12:00:53 on domain   3:     .41679 elapsed seconds
Timing for main: time 2016-02-05_12:01:06 on domain   3:     .40628 elapsed seconds
Timing for main: time 2016-02-05_12:01:20 on domain   3:     .40682 elapsed seconds
Timing for main: time 2016-02-05_12:01:00 on domain   4:     .49941 elapsed seconds
Timing for main: time 2016-02-05_12:01:20 on domain   4:     .47997 elapsed seconds
Timing for main: time 2016-02-05_12:01:20 on domain   2:    3.32872 elapsed seconds
Timing for main: time 2016-02-05_12:01:33 on domain   3:     .41858 elapsed seconds
Timing for main: time 2016-02-05_12:01:46 on domain   3:     .41165 elapsed seconds
Timing for main: time 2016-02-05_12:02:00 on domain   3:     .40627 elapsed seconds
Timing for main: time 2016-02-05_12:01:40 on domain   4:     .49892 elapsed seconds
Timing for main: time 2016-02-05_12:02:00 on domain   4:     .47924 elapsed seconds
Timing for main: time 2016-02-05_12:02:00 on domain   2:    3.43554 elapsed seconds
Timing for main: time 2016-02-05_12:02:00 on domain   1:   65.80944 elapsed seconds
Timing for main: time 2016-02-05_12:02:13 on domain   3:     .41855 elapsed seconds
Timing for main: time 2016-02-05_12:02:26 on domain   3:     .40845 elapsed seconds
Timing for main: time 2016-02-05_12:02:40 on domain   3:     .40631 elapsed seconds
Timing for main: time 2016-02-05_12:02:20 on domain   4:     .49964 elapsed seconds
Timing for main: time 2016-02-05_12:02:40 on domain   4:     .48161 elapsed seconds
Timing for main: time 2016-02-05_12:02:40 on domain   2:    3.45584 elapsed seconds
Timing for main: time 2016-02-05_12:02:53 on domain   3:     .41873 elapsed seconds
Timing for main: time 2016-02-05_12:03:06 on domain   3:     .40618 elapsed seconds
Timing for main: time 2016-02-05_12:03:20 on domain   3:     .40845 elapsed seconds
Timing for main: time 2016-02-05_12:03:00 on domain   4:     .50073 elapsed seconds
Timing for main: time 2016-02-05_12:03:20 on domain   4:     .47899 elapsed seconds
Timing for main: time 2016-02-05_12:03:20 on domain   2:    3.43192 elapsed seconds
Timing for main: time 2016-02-05_12:03:33 on domain   3:     .41834 elapsed seconds
Timing for main: time 2016-02-05_12:03:46 on domain   3:     .40742 elapsed seconds
Timing for main: time 2016-02-05_12:04:00 on domain   3:     .40635 elapsed seconds
Timing for main: time 2016-02-05_12:03:40 on domain   4:     .49984 elapsed seconds
Timing for main: time 2016-02-05_12:04:00 on domain   4:     .48703 elapsed seconds
Timing for main: time 2016-02-05_12:04:00 on domain   2:    3.43888 elapsed seconds
Timing for main: time 2016-02-05_12:04:00 on domain   1:   10.90975 elapsed seconds
Timing for main: time 2016-02-05_12:04:13 on domain   3:     .41888 elapsed seconds
Timing for main: time 2016-02-05_12:04:26 on domain   3:     .40656 elapsed seconds
Timing for main: time 2016-02-05_12:04:40 on domain   3:     .40649 elapsed seconds
Timing for main: time 2016-02-05_12:04:20 on domain   4:     .49726 elapsed seconds
Timing for main: time 2016-02-05_12:04:40 on domain   4:     .48019 elapsed seconds
Timing for main: time 2016-02-05_12:04:40 on domain   2:    3.45348 elapsed seconds
Timing for main: time 2016-02-05_12:04:53 on domain   3:     .42016 elapsed seconds
Timing for main: time 2016-02-05_12:05:06 on domain   3:     .42603 elapsed seconds
Timing for main: time 2016-02-05_12:05:20 on domain   3:     .40726 elapsed seconds
Timing for main: time 2016-02-05_12:05:00 on domain   4:     .52301 elapsed seconds
Timing for main: time 2016-02-05_12:05:20 on domain   4:     .48163 elapsed seconds
Timing for main: time 2016-02-05_12:05:20 on domain   2:    3.50273 elapsed seconds
Timing for main: time 2016-02-05_12:05:33 on domain   3:     .41886 elapsed seconds
Timing for main: time 2016-02-05_12:05:46 on domain   3:     .40725 elapsed seconds
Timing for main: time 2016-02-05_12:06:00 on domain   3:     .40955 elapsed seconds
Timing for main: time 2016-02-05_12:05:40 on domain   4:     .49971 elapsed seconds
Timing for main: time 2016-02-05_12:06:00 on domain   4:     .48000 elapsed seconds
Timing for main: time 2016-02-05_12:06:00 on domain   2:    3.43688 elapsed seconds
Timing for main: time 2016-02-05_12:06:00 on domain   1:   11.05243 elapsed seconds
Timing for main: time 2016-02-05_12:06:13 on domain   3:     .41913 elapsed seconds
Timing for main: time 2016-02-05_12:06:26 on domain   3:     .40661 elapsed seconds
Timing for main: time 2016-02-05_12:06:40 on domain   3:     .40732 elapsed seconds
Timing for main: time 2016-02-05_12:06:20 on domain   4:     .49973 elapsed seconds
Timing for main: time 2016-02-05_12:06:40 on domain   4:     .48010 elapsed seconds
Timing for main: time 2016-02-05_12:06:40 on domain   2:    3.45575 elapsed seconds
Timing for main: time 2016-02-05_12:06:53 on domain   3:     .41995 elapsed seconds
Timing for main: time 2016-02-05_12:07:06 on domain   3:     .40747 elapsed seconds
Timing for main: time 2016-02-05_12:07:20 on domain   3:     .41045 elapsed seconds
Timing for main: time 2016-02-05_12:07:00 on domain   4:     .49995 elapsed seconds
Timing for main: time 2016-02-05_12:07:20 on domain   4:     .48024 elapsed seconds
Timing for main: time 2016-02-05_12:07:20 on domain   2:    3.43763 elapsed seconds
Timing for main: time 2016-02-05_12:07:33 on domain   3:     .42018 elapsed seconds
Timing for main: time 2016-02-05_12:07:46 on domain   3:     .40680 elapsed seconds
Timing for main: time 2016-02-05_12:08:00 on domain   3:     .40734 elapsed seconds
Timing for main: time 2016-02-05_12:07:40 on domain   4:     .50174 elapsed seconds
Timing for main: time 2016-02-05_12:08:00 on domain   4:     .48060 elapsed seconds
Timing for main: time 2016-02-05_12:08:00 on domain   2:    3.43683 elapsed seconds
Timing for main: time 2016-02-05_12:08:00 on domain   1:   10.97112 elapsed seconds
Timing for main: time 2016-02-05_12:08:13 on domain   3:     .41925 elapsed seconds
Timing for main: time 2016-02-05_12:08:26 on domain   3:     .40596 elapsed seconds
Timing for main: time 2016-02-05_12:08:40 on domain   3:     .40626 elapsed seconds
Timing for main: time 2016-02-05_12:08:20 on domain   4:     .50139 elapsed seconds
Timing for main: time 2016-02-05_12:08:40 on domain   4:     .48200 elapsed seconds
Timing for main: time 2016-02-05_12:08:40 on domain   2:    3.45723 elapsed seconds
Timing for main: time 2016-02-05_12:08:53 on domain   3:     .42146 elapsed seconds
Timing for main: time 2016-02-05_12:09:06 on domain   3:     .40677 elapsed seconds
Timing for main: time 2016-02-05_12:09:20 on domain   3:     .40659 elapsed seconds
Timing for main: time 2016-02-05_12:09:00 on domain   4:     .50024 elapsed seconds
Timing for main: time 2016-02-05_12:09:20 on domain   4:     .48121 elapsed seconds
Timing for main: time 2016-02-05_12:09:20 on domain   2:    3.43730 elapsed seconds
Timing for main: time 2016-02-05_12:09:33 on domain   3:     .41836 elapsed seconds
Timing for main: time 2016-02-05_12:09:46 on domain   3:     .40685 elapsed seconds
Timing for main: time 2016-02-05_12:10:00 on domain   3:     .40620 elapsed seconds
Timing for main: time 2016-02-05_12:09:40 on domain   4:     .50141 elapsed seconds
Timing for main: time 2016-02-05_12:10:00 on domain   4:     .50456 elapsed seconds
Timing for main: time 2016-02-05_12:10:00 on domain   2:    3.46405 elapsed seconds
Timing for main: time 2016-02-05_12:10:00 on domain   1:   11.00497 elapsed seconds
Timing for main: time 2016-02-05_12:10:13 on domain   3:     .43822 elapsed seconds
Timing for main: time 2016-02-05_12:10:26 on domain   3:     .40668 elapsed seconds
Timing for main: time 2016-02-05_12:10:40 on domain   3:     .40637 elapsed seconds
Timing for main: time 2016-02-05_12:10:20 on domain   4:     .50077 elapsed seconds
Timing for main: time 2016-02-05_12:10:40 on domain   4:     .48363 elapsed seconds
Timing for main: time 2016-02-05_12:10:40 on domain   2:    3.50369 elapsed seconds
Timing for main: time 2016-02-05_12:10:53 on domain   3:     .41844 elapsed seconds
Timing for main: time 2016-02-05_12:11:06 on domain   3:     .40706 elapsed seconds
Timing for main: time 2016-02-05_12:11:20 on domain   3:     .40709 elapsed seconds
Timing for main: time 2016-02-05_12:11:00 on domain   4:     .50032 elapsed seconds
Timing for main: time 2016-02-05_12:11:20 on domain   4:     .48088 elapsed seconds
Timing for main: time 2016-02-05_12:11:20 on domain   2:    3.43480 elapsed seconds
Timing for main: time 2016-02-05_12:11:33 on domain   3:     .43365 elapsed seconds
Timing for main: time 2016-02-05_12:11:46 on domain   3:     .40682 elapsed seconds
Timing for main: time 2016-02-05_12:12:00 on domain   3:     .40930 elapsed seconds
Timing for main: time 2016-02-05_12:11:40 on domain   4:     .49872 elapsed seconds
Timing for main: time 2016-02-05_12:12:00 on domain   4:     .48165 elapsed seconds
Timing for main: time 2016-02-05_12:12:00 on domain   2:    3.45385 elapsed seconds
Timing for main: time 2016-02-05_12:12:00 on domain   1:   11.05055 elapsed seconds
Timing for main: time 2016-02-05_12:12:13 on domain   3:     .41921 elapsed seconds
Timing for main: time 2016-02-05_12:12:26 on domain   3:     .40710 elapsed seconds
Timing for main: time 2016-02-05_12:12:40 on domain   3:     .40590 elapsed seconds
Timing for main: time 2016-02-05_12:12:20 on domain   4:     .50138 elapsed seconds
Timing for main: time 2016-02-05_12:12:40 on domain   4:     .48127 elapsed seconds
Timing for main: time 2016-02-05_12:12:40 on domain   2:    3.45657 elapsed seconds
Timing for main: time 2016-02-05_12:12:53 on domain   3:     .41890 elapsed seconds
Timing for main: time 2016-02-05_12:13:06 on domain   3:     .40856 elapsed seconds
Timing for main: time 2016-02-05_12:13:20 on domain   3:     .40592 elapsed seconds
Timing for main: time 2016-02-05_12:13:00 on domain   4:     .50073 elapsed seconds
Timing for main: time 2016-02-05_12:13:20 on domain   4:     .48172 elapsed seconds
Timing for main: time 2016-02-05_12:13:20 on domain   2:    3.44123 elapsed seconds
Timing for main: time 2016-02-05_12:13:33 on domain   3:     .41867 elapsed seconds
Timing for main: time 2016-02-05_12:13:46 on domain   3:     .40687 elapsed seconds
Timing for main: time 2016-02-05_12:14:00 on domain   3:     .40658 elapsed seconds
Timing for main: time 2016-02-05_12:13:40 on domain   4:     .50075 elapsed seconds
Timing for main: time 2016-02-05_12:14:00 on domain   4:     .56808 elapsed seconds
Timing for main: time 2016-02-05_12:14:00 on domain   2:    3.52263 elapsed seconds
Timing for main: time 2016-02-05_12:14:00 on domain   1:   11.05969 elapsed seconds
Timing for main: time 2016-02-05_12:14:13 on domain   3:     .41794 elapsed seconds
Timing for main: time 2016-02-05_12:14:26 on domain   3:     .40894 elapsed seconds
Timing for main: time 2016-02-05_12:14:40 on domain   3:     .40566 elapsed seconds
Timing for main: time 2016-02-05_12:14:20 on domain   4:     .50183 elapsed seconds
Timing for main: time 2016-02-05_12:14:40 on domain   4:     .48134 elapsed seconds
Timing for main: time 2016-02-05_12:14:40 on domain   2:    3.45779 elapsed seconds
Timing for main: time 2016-02-05_12:14:53 on domain   3:     .41879 elapsed seconds
Timing for main: time 2016-02-05_12:15:06 on domain   3:     .40633 elapsed seconds
Timing for main: time 2016-02-05_12:15:20 on domain   3:     .42579 elapsed seconds
Timing for main: time 2016-02-05_12:15:00 on domain   4:     .52438 elapsed seconds
Timing for main: time 2016-02-05_12:15:20 on domain   4:     .48118 elapsed seconds
Timing for main: time 2016-02-05_12:15:20 on domain   2:    3.47788 elapsed seconds
Timing for main: time 2016-02-05_12:15:33 on domain   3:     .41891 elapsed seconds
Timing for main: time 2016-02-05_12:15:46 on domain   3:     .40669 elapsed seconds
Timing for main: time 2016-02-05_12:16:00 on domain   3:     .40644 elapsed seconds
Timing for main: time 2016-02-05_12:15:40 on domain   4:     .50314 elapsed seconds
Timing for main: time 2016-02-05_12:16:00 on domain   4:     .48153 elapsed seconds
Timing for main: time 2016-02-05_12:16:00 on domain   2:    3.46251 elapsed seconds
Timing for main: time 2016-02-05_12:16:00 on domain   1:   11.04435 elapsed seconds
Timing for main: time 2016-02-05_12:16:13 on domain   3:     .41827 elapsed seconds
Timing for main: time 2016-02-05_12:16:26 on domain   3:     .40788 elapsed seconds
Timing for main: time 2016-02-05_12:16:40 on domain   3:     .40713 elapsed seconds
Timing for main: time 2016-02-05_12:16:20 on domain   4:     .50128 elapsed seconds
Timing for main: time 2016-02-05_12:16:40 on domain   4:     .48151 elapsed seconds
Timing for main: time 2016-02-05_12:16:40 on domain   2:    3.45886 elapsed seconds
Timing for main: time 2016-02-05_12:16:53 on domain   3:     .41920 elapsed seconds
Timing for main: time 2016-02-05_12:17:06 on domain   3:     .40938 elapsed seconds
Timing for main: time 2016-02-05_12:17:20 on domain   3:     .40659 elapsed seconds
Timing for main: time 2016-02-05_12:17:00 on domain   4:     .50162 elapsed seconds
Timing for main: time 2016-02-05_12:17:20 on domain   4:     .48146 elapsed seconds
Timing for main: time 2016-02-05_12:17:20 on domain   2:    3.43953 elapsed seconds
Timing for main: time 2016-02-05_12:17:33 on domain   3:     .41859 elapsed seconds
Timing for main: time 2016-02-05_12:17:46 on domain   3:     .40740 elapsed seconds
Timing for main: time 2016-02-05_12:18:00 on domain   3:     .40613 elapsed seconds
Timing for main: time 2016-02-05_12:17:40 on domain   4:     .50189 elapsed seconds
Timing for main: time 2016-02-05_12:18:00 on domain   4:     .48139 elapsed seconds
Timing for main: time 2016-02-05_12:18:00 on domain   2:    3.43697 elapsed seconds
Timing for main: time 2016-02-05_12:18:00 on domain   1:   10.99370 elapsed seconds
Timing for main: time 2016-02-05_12:18:13 on domain   3:     .41862 elapsed seconds
Timing for main: time 2016-02-05_12:18:26 on domain   3:     .40629 elapsed seconds
Timing for main: time 2016-02-05_12:18:40 on domain   3:     .40867 elapsed seconds
Timing for main: time 2016-02-05_12:18:20 on domain   4:     .50105 elapsed seconds
Timing for main: time 2016-02-05_12:18:40 on domain   4:     .48160 elapsed seconds
Timing for main: time 2016-02-05_12:18:40 on domain   2:    3.45837 elapsed seconds
Timing for main: time 2016-02-05_12:18:53 on domain   3:     .42468 elapsed seconds
Timing for main: time 2016-02-05_12:19:06 on domain   3:     .40552 elapsed seconds
Timing for main: time 2016-02-05_12:19:20 on domain   3:     .40763 elapsed seconds
Timing for main: time 2016-02-05_12:19:00 on domain   4:     .50195 elapsed seconds
Timing for main: time 2016-02-05_12:19:20 on domain   4:     .48149 elapsed seconds
Timing for main: time 2016-02-05_12:19:20 on domain   2:    3.44251 elapsed seconds
Timing for main: time 2016-02-05_12:19:33 on domain   3:     .41997 elapsed seconds
Timing for main: time 2016-02-05_12:19:46 on domain   3:     .40725 elapsed seconds
Timing for main: time 2016-02-05_12:20:00 on domain   3:     .40641 elapsed seconds
Timing for main: time 2016-02-05_12:19:40 on domain   4:     .50154 elapsed seconds
Timing for main: time 2016-02-05_12:20:00 on domain   4:     .50450 elapsed seconds
Timing for main: time 2016-02-05_12:20:00 on domain   2:    3.46112 elapsed seconds
Timing for main: time 2016-02-05_12:20:00 on domain   1:   11.00264 elapsed seconds
Timing for main: time 2016-02-05_12:20:13 on domain   3:     .42279 elapsed seconds
Timing for main: time 2016-02-05_12:20:26 on domain   3:     .42668 elapsed seconds
Timing for main: time 2016-02-05_12:20:40 on domain   3:     .40625 elapsed seconds
Timing for main: time 2016-02-05_12:20:20 on domain   4:     .50142 elapsed seconds
Timing for main: time 2016-02-05_12:20:40 on domain   4:     .48132 elapsed seconds
Timing for main: time 2016-02-05_12:20:40 on domain   2:    3.48046 elapsed seconds
Timing for main: time 2016-02-05_12:20:53 on domain   3:     .50273 elapsed seconds
Timing for main: time 2016-02-05_12:21:06 on domain   3:     .39923 elapsed seconds
Timing for main: time 2016-02-05_12:21:20 on domain   3:     .40672 elapsed seconds
Timing for main: time 2016-02-05_12:21:00 on domain   4:     .50157 elapsed seconds
Timing for main: time 2016-02-05_12:21:20 on domain   4:     .48150 elapsed seconds
Timing for main: time 2016-02-05_12:21:20 on domain   2:    3.53887 elapsed seconds
Timing for main: time 2016-02-05_12:21:33 on domain   3:     .41902 elapsed seconds
Timing for main: time 2016-02-05_12:21:46 on domain   3:     .40780 elapsed seconds
Timing for main: time 2016-02-05_12:22:00 on domain   3:     .40688 elapsed seconds
Timing for main: time 2016-02-05_12:21:40 on domain   4:     .50107 elapsed seconds
Timing for main: time 2016-02-05_12:22:00 on domain   4:     .48151 elapsed seconds
Timing for main: time 2016-02-05_12:22:00 on domain   2:    3.43711 elapsed seconds
Timing for main: time 2016-02-05_12:22:00 on domain   1:   11.09589 elapsed seconds
Timing for main: time 2016-02-05_12:22:13 on domain   3:     .41916 elapsed seconds
Timing for main: time 2016-02-05_12:22:26 on domain   3:     .40688 elapsed seconds
Timing for main: time 2016-02-05_12:22:40 on domain   3:     .40959 elapsed seconds
Timing for main: time 2016-02-05_12:22:20 on domain   4:     .50078 elapsed seconds
Timing for main: time 2016-02-05_12:22:40 on domain   4:     .48191 elapsed seconds
Timing for main: time 2016-02-05_12:22:40 on domain   2:    3.46075 elapsed seconds
Timing for main: time 2016-02-05_12:22:53 on domain   3:     .41928 elapsed seconds
Timing for main: time 2016-02-05_12:23:06 on domain   3:     .40757 elapsed seconds
Timing for main: time 2016-02-05_12:23:20 on domain   3:     .40832 elapsed seconds
Timing for main: time 2016-02-05_12:23:00 on domain   4:     .50210 elapsed seconds
Timing for main: time 2016-02-05_12:23:20 on domain   4:     .48156 elapsed seconds
Timing for main: time 2016-02-05_12:23:20 on domain   2:    3.43942 elapsed seconds
Timing for main: time 2016-02-05_12:23:33 on domain   3:     .41870 elapsed seconds
Timing for main: time 2016-02-05_12:23:46 on domain   3:     .40585 elapsed seconds
Timing for main: time 2016-02-05_12:24:00 on domain   3:     .41339 elapsed seconds
Timing for main: time 2016-02-05_12:23:40 on domain   4:     .50117 elapsed seconds
Timing for main: time 2016-02-05_12:24:00 on domain   4:     .48152 elapsed seconds
Timing for main: time 2016-02-05_12:24:00 on domain   2:    3.44366 elapsed seconds
Timing for main: time 2016-02-05_12:24:00 on domain   1:   11.00142 elapsed seconds
Timing for main: time 2016-02-05_12:24:13 on domain   3:     .41876 elapsed seconds
Timing for main: time 2016-02-05_12:24:26 on domain   3:     .40890 elapsed seconds
Timing for main: time 2016-02-05_12:24:40 on domain   3:     .40674 elapsed seconds
Timing for main: time 2016-02-05_12:24:20 on domain   4:     .50150 elapsed seconds
Timing for main: time 2016-02-05_12:24:40 on domain   4:     .48036 elapsed seconds
Timing for main: time 2016-02-05_12:24:40 on domain   2:    3.45813 elapsed seconds
Timing for main: time 2016-02-05_12:24:53 on domain   3:     .42106 elapsed seconds
Timing for main: time 2016-02-05_12:25:06 on domain   3:     .40700 elapsed seconds
Timing for main: time 2016-02-05_12:25:20 on domain   3:     .40718 elapsed seconds
Timing for main: time 2016-02-05_12:25:00 on domain   4:     .52542 elapsed seconds
Timing for main: time 2016-02-05_12:25:20 on domain   4:     .48118 elapsed seconds
Timing for main: time 2016-02-05_12:25:20 on domain   2:    3.46198 elapsed seconds
Timing for main: time 2016-02-05_12:25:33 on domain   3:     .43883 elapsed seconds
Timing for main: time 2016-02-05_12:25:46 on domain   3:     .40699 elapsed seconds
Timing for main: time 2016-02-05_12:26:00 on domain   3:     .40950 elapsed seconds
Timing for main: time 2016-02-05_12:25:40 on domain   4:     .50048 elapsed seconds
Timing for main: time 2016-02-05_12:26:00 on domain   4:     .48177 elapsed seconds
Timing for main: time 2016-02-05_12:26:00 on domain   2:    3.45931 elapsed seconds
Timing for main: time 2016-02-05_12:26:00 on domain   1:   11.01892 elapsed seconds
Timing for main: time 2016-02-05_12:26:13 on domain   3:     .41908 elapsed seconds
Timing for main: time 2016-02-05_12:26:26 on domain   3:     .40649 elapsed seconds
Timing for main: time 2016-02-05_12:26:40 on domain   3:     .40684 elapsed seconds
Timing for main: time 2016-02-05_12:26:20 on domain   4:     .50090 elapsed seconds
Timing for main: time 2016-02-05_12:26:40 on domain   4:     .48188 elapsed seconds
Timing for main: time 2016-02-05_12:26:40 on domain   2:    3.48197 elapsed seconds
Timing for main: time 2016-02-05_12:26:53 on domain   3:     .41947 elapsed seconds
Timing for main: time 2016-02-05_12:27:06 on domain   3:     .40647 elapsed seconds
Timing for main: time 2016-02-05_12:27:20 on domain   3:     .40924 elapsed seconds
Timing for main: time 2016-02-05_12:27:00 on domain   4:     .50138 elapsed seconds
Timing for main: time 2016-02-05_12:27:20 on domain   4:     .48157 elapsed seconds
Timing for main: time 2016-02-05_12:27:20 on domain   2:    3.44005 elapsed seconds
Timing for main: time 2016-02-05_12:27:33 on domain   3:     .41933 elapsed seconds
Timing for main: time 2016-02-05_12:27:46 on domain   3:     .40661 elapsed seconds
Timing for main: time 2016-02-05_12:28:00 on domain   3:     .40689 elapsed seconds
Timing for main: time 2016-02-05_12:27:40 on domain   4:     .50301 elapsed seconds
Timing for main: time 2016-02-05_12:28:00 on domain   4:     .48513 elapsed seconds
Timing for main: time 2016-02-05_12:28:00 on domain   2:    3.44315 elapsed seconds
Timing for main: time 2016-02-05_12:28:00 on domain   1:   11.00595 elapsed seconds
  photolysis_driver: called for domain  1
Timing for main: time 2016-02-05_12:28:13 on domain   3:     .41961 elapsed seconds
Timing for main: time 2016-02-05_12:28:26 on domain   3:     .40610 elapsed seconds
Timing for main: time 2016-02-05_12:28:40 on domain   3:     .40647 elapsed seconds
Timing for main: time 2016-02-05_12:28:20 on domain   4:     .50350 elapsed seconds
Timing for main: time 2016-02-05_12:28:40 on domain   4:     .48167 elapsed seconds
Timing for main: time 2016-02-05_12:28:40 on domain   2:    3.45991 elapsed seconds
Timing for main: time 2016-02-05_12:28:53 on domain   3:     .41999 elapsed seconds
Timing for main: time 2016-02-05_12:29:06 on domain   3:     .40712 elapsed seconds
Timing for main: time 2016-02-05_12:29:20 on domain   3:     .40736 elapsed seconds
Timing for main: time 2016-02-05_12:29:00 on domain   4:     .50080 elapsed seconds
Timing for main: time 2016-02-05_12:29:20 on domain   4:     .48164 elapsed seconds
Timing for main: time 2016-02-05_12:29:20 on domain   2:    3.43809 elapsed seconds
  photolysis_driver: called for domain  2
Timing for main: time 2016-02-05_12:29:33 on domain   3:     .42006 elapsed seconds
Timing for main: time 2016-02-05_12:29:46 on domain   3:     .40903 elapsed seconds
  photolysis_driver: called for domain  3
Timing for main: time 2016-02-05_12:30:00 on domain   3:    2.68743 elapsed seconds
Timing for main: time 2016-02-05_12:29:40 on domain   4:     .50271 elapsed seconds
  photolysis_driver: called for domain  4
Timing for main: time 2016-02-05_12:30:00 on domain   4:    3.09537 elapsed seconds
Timing for main: time 2016-02-05_12:30:00 on domain   2:   11.21045 elapsed seconds
Timing for main: time 2016-02-05_12:30:00 on domain   1:   20.48181 elapsed seconds
Timing for main: time 2016-02-05_12:30:13 on domain   3:     .86171 elapsed seconds
Timing for main: time 2016-02-05_12:30:26 on domain   3:     .40348 elapsed seconds
Timing for main: time 2016-02-05_12:30:40 on domain   3:     .42348 elapsed seconds
Timing for main: time 2016-02-05_12:30:20 on domain   4:    1.00858 elapsed seconds
Timing for main: time 2016-02-05_12:30:40 on domain   4:     .47805 elapsed seconds
Timing for main: time 2016-02-05_12:30:40 on domain   2:    4.99349 elapsed seconds
Timing for main: time 2016-02-05_12:30:53 on domain   3:     .41640 elapsed seconds
Timing for main: time 2016-02-05_12:31:06 on domain   3:     .40417 elapsed seconds
Timing for main: time 2016-02-05_12:31:20 on domain   3:     .40292 elapsed seconds
Timing for main: time 2016-02-05_12:31:00 on domain   4:     .49786 elapsed seconds
Timing for main: time 2016-02-05_12:31:20 on domain   4:     .48209 elapsed seconds
Timing for main: time 2016-02-05_12:31:20 on domain   2:    3.42162 elapsed seconds
Timing for main: time 2016-02-05_12:31:33 on domain   3:     .41351 elapsed seconds
Timing for main: time 2016-02-05_12:31:46 on domain   3:     .40396 elapsed seconds
Timing for main: time 2016-02-05_12:32:00 on domain   3:     .40381 elapsed seconds
Timing for main: time 2016-02-05_12:31:40 on domain   4:     .49807 elapsed seconds
Timing for main: time 2016-02-05_12:32:00 on domain   4:     .47765 elapsed seconds
Timing for main: time 2016-02-05_12:32:00 on domain   2:    3.44377 elapsed seconds
Timing for main: time 2016-02-05_12:32:00 on domain   1:   12.88513 elapsed seconds
Timing for main: time 2016-02-05_12:32:13 on domain   3:     .41774 elapsed seconds
Timing for main: time 2016-02-05_12:32:26 on domain   3:     .40495 elapsed seconds
Timing for main: time 2016-02-05_12:32:40 on domain   3:     .40555 elapsed seconds
Timing for main: time 2016-02-05_12:32:20 on domain   4:     .49768 elapsed seconds
Timing for main: time 2016-02-05_12:32:40 on domain   4:     .47712 elapsed seconds
Timing for main: time 2016-02-05_12:32:40 on domain   2:    3.44103 elapsed seconds
Timing for main: time 2016-02-05_12:32:53 on domain   3:     .41600 elapsed seconds
Timing for main: time 2016-02-05_12:33:06 on domain   3:     .40437 elapsed seconds
Timing for main: time 2016-02-05_12:33:20 on domain   3:     .40471 elapsed seconds
Timing for main: time 2016-02-05_12:33:00 on domain   4:     .50473 elapsed seconds
Timing for main: time 2016-02-05_12:33:20 on domain   4:     .47818 elapsed seconds
Timing for main: time 2016-02-05_12:33:20 on domain   2:    3.42834 elapsed seconds
Timing for main: time 2016-02-05_12:33:33 on domain   3:     .41598 elapsed seconds
Timing for main: time 2016-02-05_12:33:46 on domain   3:     .40376 elapsed seconds
Timing for main: time 2016-02-05_12:34:00 on domain   3:     .40456 elapsed seconds
Timing for main: time 2016-02-05_12:33:40 on domain   4:     .49738 elapsed seconds
Timing for main: time 2016-02-05_12:34:00 on domain   4:     .47826 elapsed seconds
Timing for main: time 2016-02-05_12:34:00 on domain   2:    3.41864 elapsed seconds
Timing for main: time 2016-02-05_12:34:00 on domain   1:   10.92915 elapsed seconds
Timing for main: time 2016-02-05_12:34:13 on domain   3:     .41608 elapsed seconds
Timing for main: time 2016-02-05_12:34:26 on domain   3:     .40284 elapsed seconds
Timing for main: time 2016-02-05_12:34:40 on domain   3:     .40411 elapsed seconds
Timing for main: time 2016-02-05_12:34:20 on domain   4:     .61917 elapsed seconds
Timing for main: time 2016-02-05_12:34:40 on domain   4:     .48044 elapsed seconds
Timing for main: time 2016-02-05_12:34:40 on domain   2:    3.56073 elapsed seconds
Timing for main: time 2016-02-05_12:34:53 on domain   3:     .41654 elapsed seconds
Timing for main: time 2016-02-05_12:35:06 on domain   3:     .40400 elapsed seconds
Timing for main: time 2016-02-05_12:35:20 on domain   3:     .40407 elapsed seconds
Timing for main: time 2016-02-05_12:35:00 on domain   4:     .51818 elapsed seconds
Timing for main: time 2016-02-05_12:35:20 on domain   4:     .47778 elapsed seconds
Timing for main: time 2016-02-05_12:35:20 on domain   2:    3.44083 elapsed seconds
Timing for main: time 2016-02-05_12:35:33 on domain   3:     .41762 elapsed seconds
Timing for main: time 2016-02-05_12:35:46 on domain   3:     .42475 elapsed seconds
Timing for main: time 2016-02-05_12:36:00 on domain   3:     .40391 elapsed seconds
Timing for main: time 2016-02-05_12:35:40 on domain   4:     .50055 elapsed seconds
Timing for main: time 2016-02-05_12:36:00 on domain   4:     .48141 elapsed seconds
Timing for main: time 2016-02-05_12:36:00 on domain   2:    3.44626 elapsed seconds
Timing for main: time 2016-02-05_12:36:00 on domain   1:   11.10763 elapsed seconds
Timing for main: time 2016-02-05_12:36:13 on domain   3:     .41680 elapsed seconds
Timing for main: time 2016-02-05_12:36:26 on domain   3:     .40648 elapsed seconds
Timing for main: time 2016-02-05_12:36:40 on domain   3:     .40442 elapsed seconds
Timing for main: time 2016-02-05_12:36:20 on domain   4:     .49756 elapsed seconds
Timing for main: time 2016-02-05_12:36:40 on domain   4:     .47763 elapsed seconds
Timing for main: time 2016-02-05_12:36:40 on domain   2:    3.44070 elapsed seconds
Timing for main: time 2016-02-05_12:36:53 on domain   3:     .41904 elapsed seconds
Timing for main: time 2016-02-05_12:37:06 on domain   3:     .40078 elapsed seconds
Timing for main: time 2016-02-05_12:37:20 on domain   3:     .40410 elapsed seconds
Timing for main: time 2016-02-05_12:37:00 on domain   4:     .49619 elapsed seconds
Timing for main: time 2016-02-05_12:37:20 on domain   4:     .47795 elapsed seconds
Timing for main: time 2016-02-05_12:37:20 on domain   2:    3.45682 elapsed seconds
Timing for main: time 2016-02-05_12:37:33 on domain   3:     .41875 elapsed seconds
Timing for main: time 2016-02-05_12:37:46 on domain   3:     .40371 elapsed seconds
Timing for main: time 2016-02-05_12:38:00 on domain   3:     .40617 elapsed seconds
Timing for main: time 2016-02-05_12:37:40 on domain   4:     .49737 elapsed seconds
Timing for main: time 2016-02-05_12:38:00 on domain   4:     .47825 elapsed seconds
Timing for main: time 2016-02-05_12:38:00 on domain   2:    3.42263 elapsed seconds
Timing for main: time 2016-02-05_12:38:00 on domain   1:   10.96109 elapsed seconds
Timing for main: time 2016-02-05_12:38:13 on domain   3:     .41600 elapsed seconds
Timing for main: time 2016-02-05_12:38:26 on domain   3:     .40480 elapsed seconds
Timing for main: time 2016-02-05_12:38:40 on domain   3:     .40386 elapsed seconds
Timing for main: time 2016-02-05_12:38:20 on domain   4:     .49754 elapsed seconds
Timing for main: time 2016-02-05_12:38:40 on domain   4:     .48067 elapsed seconds
Timing for main: time 2016-02-05_12:38:40 on domain   2:    3.44066 elapsed seconds
Timing for main: time 2016-02-05_12:38:53 on domain   3:     .41592 elapsed seconds
Timing for main: time 2016-02-05_12:39:06 on domain   3:     .40421 elapsed seconds
Timing for main: time 2016-02-05_12:39:20 on domain   3:     .40451 elapsed seconds
Timing for main: time 2016-02-05_12:39:00 on domain   4:     .49684 elapsed seconds
Timing for main: time 2016-02-05_12:39:20 on domain   4:     .47978 elapsed seconds
Timing for main: time 2016-02-05_12:39:20 on domain   2:    3.41965 elapsed seconds
Timing for main: time 2016-02-05_12:39:33 on domain   3:     .41894 elapsed seconds
Timing for main: time 2016-02-05_12:39:46 on domain   3:     .40351 elapsed seconds
Timing for main: time 2016-02-05_12:40:00 on domain   3:     .40453 elapsed seconds
Timing for main: time 2016-02-05_12:39:40 on domain   4:     .49735 elapsed seconds
Timing for main: time 2016-02-05_12:40:00 on domain   4:     .50218 elapsed seconds
Timing for main: time 2016-02-05_12:40:00 on domain   2:    3.44450 elapsed seconds
Timing for main: time 2016-02-05_12:40:00 on domain   1:   10.94675 elapsed seconds
Timing for main: time 2016-02-05_12:40:13 on domain   3:     .41610 elapsed seconds
Timing for main: time 2016-02-05_12:40:26 on domain   3:     .40375 elapsed seconds
Timing for main: time 2016-02-05_12:40:40 on domain   3:     .40407 elapsed seconds
Timing for main: time 2016-02-05_12:40:20 on domain   4:     .49760 elapsed seconds
Timing for main: time 2016-02-05_12:40:40 on domain   4:     .47850 elapsed seconds
Timing for main: time 2016-02-05_12:40:40 on domain   2:    3.43764 elapsed seconds
Timing for main: time 2016-02-05_12:40:53 on domain   3:     .43600 elapsed seconds
Timing for main: time 2016-02-05_12:41:06 on domain   3:     .40440 elapsed seconds
Timing for main: time 2016-02-05_12:41:20 on domain   3:     .40416 elapsed seconds
Timing for main: time 2016-02-05_12:41:00 on domain   4:     .49768 elapsed seconds
Timing for main: time 2016-02-05_12:41:20 on domain   4:     .47771 elapsed seconds
Timing for main: time 2016-02-05_12:41:20 on domain   2:    3.43882 elapsed seconds
Timing for main: time 2016-02-05_12:41:33 on domain   3:     .41652 elapsed seconds
Timing for main: time 2016-02-05_12:41:46 on domain   3:     .51293 elapsed seconds
Timing for main: time 2016-02-05_12:42:00 on domain   3:     .40275 elapsed seconds
Timing for main: time 2016-02-05_12:41:40 on domain   4:     .49782 elapsed seconds
Timing for main: time 2016-02-05_12:42:00 on domain   4:     .47803 elapsed seconds
Timing for main: time 2016-02-05_12:42:00 on domain   2:    3.52650 elapsed seconds
Timing for main: time 2016-02-05_12:42:00 on domain   1:   11.06152 elapsed seconds
Timing for main: time 2016-02-05_12:42:13 on domain   3:     .41638 elapsed seconds
Timing for main: time 2016-02-05_12:42:26 on domain   3:     .40471 elapsed seconds
Timing for main: time 2016-02-05_12:42:40 on domain   3:     .40432 elapsed seconds
Timing for main: time 2016-02-05_12:42:20 on domain   4:     .49770 elapsed seconds
Timing for main: time 2016-02-05_12:42:40 on domain   4:     .47774 elapsed seconds
Timing for main: time 2016-02-05_12:42:40 on domain   2:    3.46443 elapsed seconds
Timing for main: time 2016-02-05_12:42:53 on domain   3:     .41642 elapsed seconds
Timing for main: time 2016-02-05_12:43:06 on domain   3:     .40437 elapsed seconds
Timing for main: time 2016-02-05_12:43:20 on domain   3:     .40334 elapsed seconds
Timing for main: time 2016-02-05_12:43:00 on domain   4:     .49936 elapsed seconds
Timing for main: time 2016-02-05_12:43:20 on domain   4:     .47753 elapsed seconds
Timing for main: time 2016-02-05_12:43:20 on domain   2:    3.41916 elapsed seconds
Timing for main: time 2016-02-05_12:43:33 on domain   3:     .41727 elapsed seconds
Timing for main: time 2016-02-05_12:43:46 on domain   3:     .40759 elapsed seconds
Timing for main: time 2016-02-05_12:44:00 on domain   3:     .40431 elapsed seconds
Timing for main: time 2016-02-05_12:43:40 on domain   4:     .49667 elapsed seconds
Timing for main: time 2016-02-05_12:44:00 on domain   4:     .47819 elapsed seconds
Timing for main: time 2016-02-05_12:44:00 on domain   2:    3.42262 elapsed seconds
Timing for main: time 2016-02-05_12:44:00 on domain   1:   10.94725 elapsed seconds
Timing for main: time 2016-02-05_12:44:13 on domain   3:     .41373 elapsed seconds
Timing for main: time 2016-02-05_12:44:26 on domain   3:     .40391 elapsed seconds
Timing for main: time 2016-02-05_12:44:40 on domain   3:     .40404 elapsed seconds
Timing for main: time 2016-02-05_12:44:20 on domain   4:     .49752 elapsed seconds
Timing for main: time 2016-02-05_12:44:40 on domain   4:     .47770 elapsed seconds
Timing for main: time 2016-02-05_12:44:40 on domain   2:    3.44006 elapsed seconds
Timing for main: time 2016-02-05_12:44:53 on domain   3:     .41679 elapsed seconds
Timing for main: time 2016-02-05_12:45:06 on domain   3:     .40608 elapsed seconds
Timing for main: time 2016-02-05_12:45:20 on domain   3:     .40382 elapsed seconds
Timing for main: time 2016-02-05_12:45:00 on domain   4:     .52136 elapsed seconds
Timing for main: time 2016-02-05_12:45:20 on domain   4:     .47817 elapsed seconds
Timing for main: time 2016-02-05_12:45:20 on domain   2:    3.44446 elapsed seconds
Timing for main: time 2016-02-05_12:45:33 on domain   3:     .41893 elapsed seconds
Timing for main: time 2016-02-05_12:45:46 on domain   3:     .40461 elapsed seconds
Timing for main: time 2016-02-05_12:46:00 on domain   3:     .42478 elapsed seconds
Timing for main: time 2016-02-05_12:45:40 on domain   4:     .49648 elapsed seconds
Timing for main: time 2016-02-05_12:46:00 on domain   4:     .47802 elapsed seconds
Timing for main: time 2016-02-05_12:46:00 on domain   2:    3.44234 elapsed seconds
Timing for main: time 2016-02-05_12:46:00 on domain   1:   10.96871 elapsed seconds
Timing for main: time 2016-02-05_12:46:13 on domain   3:     .41837 elapsed seconds
Timing for main: time 2016-02-05_12:46:26 on domain   3:     .40316 elapsed seconds
Timing for main: time 2016-02-05_12:46:40 on domain   3:     .40376 elapsed seconds
Timing for main: time 2016-02-05_12:46:20 on domain   4:     .49796 elapsed seconds
Timing for main: time 2016-02-05_12:46:40 on domain   4:     .47835 elapsed seconds
Timing for main: time 2016-02-05_12:46:40 on domain   2:    3.44123 elapsed seconds
Timing for main: time 2016-02-05_12:46:53 on domain   3:     .41785 elapsed seconds
Timing for main: time 2016-02-05_12:47:06 on domain   3:     .40370 elapsed seconds
Timing for main: time 2016-02-05_12:47:20 on domain   3:     .40461 elapsed seconds
Timing for main: time 2016-02-05_12:47:00 on domain   4:     .49745 elapsed seconds
Timing for main: time 2016-02-05_12:47:20 on domain   4:     .48331 elapsed seconds
Timing for main: time 2016-02-05_12:47:20 on domain   2:    3.42736 elapsed seconds
Timing for main: time 2016-02-05_12:47:33 on domain   3:     .41711 elapsed seconds
Timing for main: time 2016-02-05_12:47:46 on domain   3:     .40357 elapsed seconds
Timing for main: time 2016-02-05_12:48:00 on domain   3:     .40679 elapsed seconds
Timing for main: time 2016-02-05_12:47:40 on domain   4:     .50297 elapsed seconds
Timing for main: time 2016-02-05_12:48:00 on domain   4:     .47609 elapsed seconds
Timing for main: time 2016-02-05_12:48:00 on domain   2:    3.44948 elapsed seconds
Timing for main: time 2016-02-05_12:48:00 on domain   1:   10.97705 elapsed seconds
Timing for main: time 2016-02-05_12:48:13 on domain   3:     .41660 elapsed seconds
Timing for main: time 2016-02-05_12:48:26 on domain   3:     .40507 elapsed seconds
Timing for main: time 2016-02-05_12:48:40 on domain   3:     .49751 elapsed seconds
Timing for main: time 2016-02-05_12:48:20 on domain   4:     .51479 elapsed seconds
Timing for main: time 2016-02-05_12:48:40 on domain   4:     .51099 elapsed seconds
Timing for main: time 2016-02-05_12:48:40 on domain   2:    3.58662 elapsed seconds
Timing for main: time 2016-02-05_12:48:53 on domain   3:     .41655 elapsed seconds
Timing for main: time 2016-02-05_12:49:06 on domain   3:     .40442 elapsed seconds
Timing for main: time 2016-02-05_12:49:20 on domain   3:     .40551 elapsed seconds
Timing for main: time 2016-02-05_12:49:00 on domain   4:     .49726 elapsed seconds
Timing for main: time 2016-02-05_12:49:20 on domain   4:     .47864 elapsed seconds
Timing for main: time 2016-02-05_12:49:20 on domain   2:    3.42240 elapsed seconds
Timing for main: time 2016-02-05_12:49:33 on domain   3:     .42237 elapsed seconds
Timing for main: time 2016-02-05_12:49:46 on domain   3:     .40573 elapsed seconds
Timing for main: time 2016-02-05_12:50:00 on domain   3:     .40430 elapsed seconds
Timing for main: time 2016-02-05_12:49:40 on domain   4:     .49670 elapsed seconds
Timing for main: time 2016-02-05_12:50:00 on domain   4:     .50115 elapsed seconds
Timing for main: time 2016-02-05_12:50:00 on domain   2:    3.44936 elapsed seconds
Timing for main: time 2016-02-05_12:50:00 on domain   1:   11.09939 elapsed seconds
Timing for main: time 2016-02-05_12:50:13 on domain   3:     .41639 elapsed seconds
Timing for main: time 2016-02-05_12:50:26 on domain   3:     .40454 elapsed seconds
Timing for main: time 2016-02-05_12:50:40 on domain   3:     .40897 elapsed seconds
Timing for main: time 2016-02-05_12:50:20 on domain   4:     .49742 elapsed seconds
Timing for main: time 2016-02-05_12:50:40 on domain   4:     .47892 elapsed seconds
Timing for main: time 2016-02-05_12:50:40 on domain   2:    3.44660 elapsed seconds
Timing for main: time 2016-02-05_12:50:53 on domain   3:     .41931 elapsed seconds
Timing for main: time 2016-02-05_12:51:06 on domain   3:     .42316 elapsed seconds
Timing for main: time 2016-02-05_12:51:20 on domain   3:     .40422 elapsed seconds
Timing for main: time 2016-02-05_12:51:00 on domain   4:     .49776 elapsed seconds
Timing for main: time 2016-02-05_12:51:20 on domain   4:     .47787 elapsed seconds
Timing for main: time 2016-02-05_12:51:20 on domain   2:    3.44136 elapsed seconds
Timing for main: time 2016-02-05_12:51:33 on domain   3:     .41633 elapsed seconds
Timing for main: time 2016-02-05_12:51:46 on domain   3:     .40475 elapsed seconds
Timing for main: time 2016-02-05_12:52:00 on domain   3:     .40395 elapsed seconds
Timing for main: time 2016-02-05_12:51:40 on domain   4:     .49869 elapsed seconds
Timing for main: time 2016-02-05_12:52:00 on domain   4:     .47956 elapsed seconds
Timing for main: time 2016-02-05_12:52:00 on domain   2:    3.42308 elapsed seconds
Timing for main: time 2016-02-05_12:52:00 on domain   1:   10.95304 elapsed seconds
Timing for main: time 2016-02-05_12:52:13 on domain   3:     .41898 elapsed seconds
Timing for main: time 2016-02-05_12:52:26 on domain   3:     .40412 elapsed seconds
Timing for main: time 2016-02-05_12:52:40 on domain   3:     .40471 elapsed seconds
Timing for main: time 2016-02-05_12:52:20 on domain   4:     .49726 elapsed seconds
Timing for main: time 2016-02-05_12:52:40 on domain   4:     .47783 elapsed seconds
Timing for main: time 2016-02-05_12:52:40 on domain   2:    3.44141 elapsed seconds
Timing for main: time 2016-02-05_12:52:53 on domain   3:     .41628 elapsed seconds
Timing for main: time 2016-02-05_12:53:06 on domain   3:     .40471 elapsed seconds
Timing for main: time 2016-02-05_12:53:20 on domain   3:     .40437 elapsed seconds
Timing for main: time 2016-02-05_12:53:00 on domain   4:     .49604 elapsed seconds
Timing for main: time 2016-02-05_12:53:20 on domain   4:     .47850 elapsed seconds
Timing for main: time 2016-02-05_12:53:20 on domain   2:    3.44661 elapsed seconds
Timing for main: time 2016-02-05_12:53:33 on domain   3:     .41641 elapsed seconds
Timing for main: time 2016-02-05_12:53:46 on domain   3:     .40443 elapsed seconds
Timing for main: time 2016-02-05_12:54:00 on domain   3:     .40433 elapsed seconds
Timing for main: time 2016-02-05_12:53:40 on domain   4:     .49784 elapsed seconds
Timing for main: time 2016-02-05_12:54:00 on domain   4:     .47780 elapsed seconds
Timing for main: time 2016-02-05_12:54:00 on domain   2:    3.42182 elapsed seconds
Timing for main: time 2016-02-05_12:54:00 on domain   1:   10.96926 elapsed seconds
Timing for main: time 2016-02-05_12:54:13 on domain   3:     .41617 elapsed seconds
Timing for main: time 2016-02-05_12:54:26 on domain   3:     .40782 elapsed seconds
Timing for main: time 2016-02-05_12:54:40 on domain   3:     .40467 elapsed seconds
Timing for main: time 2016-02-05_12:54:20 on domain   4:     .49647 elapsed seconds
Timing for main: time 2016-02-05_12:54:40 on domain   4:     .47914 elapsed seconds
Timing for main: time 2016-02-05_12:54:40 on domain   2:    3.44339 elapsed seconds
Timing for main: time 2016-02-05_12:54:53 on domain   3:     .41681 elapsed seconds
Timing for main: time 2016-02-05_12:55:06 on domain   3:     .40425 elapsed seconds
Timing for main: time 2016-02-05_12:55:20 on domain   3:     .40881 elapsed seconds
Timing for main: time 2016-02-05_12:55:00 on domain   4:     .51909 elapsed seconds
Timing for main: time 2016-02-05_12:55:20 on domain   4:     .47812 elapsed seconds
Timing for main: time 2016-02-05_12:55:20 on domain   2:    3.44901 elapsed seconds
Timing for main: time 2016-02-05_12:55:33 on domain   3:     .41699 elapsed seconds
Timing for main: time 2016-02-05_12:55:46 on domain   3:     .40505 elapsed seconds
Timing for main: time 2016-02-05_12:56:00 on domain   3:     .40440 elapsed seconds
Timing for main: time 2016-02-05_12:55:40 on domain   4:     .49712 elapsed seconds
Timing for main: time 2016-02-05_12:56:00 on domain   4:     .47860 elapsed seconds
Timing for main: time 2016-02-05_12:56:00 on domain   2:    3.42172 elapsed seconds
Timing for main: time 2016-02-05_12:56:00 on domain   1:   10.95572 elapsed seconds
Timing for main: time 2016-02-05_12:56:13 on domain   3:     .43680 elapsed seconds
Timing for main: time 2016-02-05_12:56:26 on domain   3:     .40561 elapsed seconds
Timing for main: time 2016-02-05_12:56:40 on domain   3:     .41001 elapsed seconds
Timing for main: time 2016-02-05_12:56:20 on domain   4:     .49745 elapsed seconds
Timing for main: time 2016-02-05_12:56:40 on domain   4:     .47911 elapsed seconds
Timing for main: time 2016-02-05_12:56:40 on domain   2:    3.47043 elapsed seconds
Timing for main: time 2016-02-05_12:56:53 on domain   3:     .41671 elapsed seconds
Timing for main: time 2016-02-05_12:57:06 on domain   3:     .40487 elapsed seconds
Timing for main: time 2016-02-05_12:57:20 on domain   3:     .40502 elapsed seconds
Timing for main: time 2016-02-05_12:57:00 on domain   4:     .49730 elapsed seconds
Timing for main: time 2016-02-05_12:57:20 on domain   4:     .47803 elapsed seconds
Timing for main: time 2016-02-05_12:57:20 on domain   2:    3.42068 elapsed seconds
Timing for main: time 2016-02-05_12:57:33 on domain   3:     .41676 elapsed seconds
Timing for main: time 2016-02-05_12:57:46 on domain   3:     .40464 elapsed seconds
Timing for main: time 2016-02-05_12:58:00 on domain   3:     .40606 elapsed seconds
Timing for main: time 2016-02-05_12:57:40 on domain   4:     .49709 elapsed seconds
Timing for main: time 2016-02-05_12:58:00 on domain   4:     .47821 elapsed seconds
Timing for main: time 2016-02-05_12:58:00 on domain   2:    3.51076 elapsed seconds
Timing for main: time 2016-02-05_12:58:00 on domain   1:   11.04304 elapsed seconds
  photolysis_driver: called for domain  1
Timing for main: time 2016-02-05_12:58:13 on domain   3:     .42397 elapsed seconds
Timing for main: time 2016-02-05_12:58:26 on domain   3:     .39929 elapsed seconds
Timing for main: time 2016-02-05_12:58:40 on domain   3:     .41172 elapsed seconds
Timing for main: time 2016-02-05_12:58:20 on domain   4:     .49728 elapsed seconds
Timing for main: time 2016-02-05_12:58:40 on domain   4:     .47841 elapsed seconds
Timing for main: time 2016-02-05_12:58:40 on domain   2:    3.47185 elapsed seconds
Timing for main: time 2016-02-05_12:58:53 on domain   3:     .41691 elapsed seconds
Timing for main: time 2016-02-05_12:59:06 on domain   3:     .40497 elapsed seconds
Timing for main: time 2016-02-05_12:59:20 on domain   3:     .40598 elapsed seconds
Timing for main: time 2016-02-05_12:59:00 on domain   4:     .49819 elapsed seconds
Timing for main: time 2016-02-05_12:59:20 on domain   4:     .47765 elapsed seconds
Timing for main: time 2016-02-05_12:59:20 on domain   2:    3.42290 elapsed seconds
  photolysis_driver: called for domain  2
Timing for main: time 2016-02-05_12:59:33 on domain   3:     .41680 elapsed seconds
Timing for main: time 2016-02-05_12:59:46 on domain   3:     .40471 elapsed seconds
  photolysis_driver: called for domain  3
Timing for main: time 2016-02-05_13:00:00 on domain   3:    2.69731 elapsed seconds
Timing for main: time 2016-02-05_12:59:40 on domain   4:     .49877 elapsed seconds
  photolysis_driver: called for domain  4
Timing for main: time 2016-02-05_13:00:00 on domain   4:    3.09278 elapsed seconds
Timing for main: time 2016-02-05_13:00:00 on domain   2:   11.20198 elapsed seconds
Timing for main: time 2016-02-05_13:00:00 on domain   1:   20.44328 elapsed seconds
Timing for Writing wrfout_d01_2016-02-05_13:00:00 for domain        1:    1.18395 elapsed seconds
  HOURLY EMISSIONS UPDATE TIME     3600.0        .0
 mediation_integrate: med_read_wrf_chem_emissions: Read emissions for time 2016-02-05_13:00:00
 **WARNING** Time in input file not being checked **WARNING**
Timing for Writing wrfout_d02_2016-02-05_13:00:00 for domain        2:    1.85859 elapsed seconds
Timing for Writing wrfout_d03_2016-02-05_13:00:00 for domain        3:    2.51167 elapsed seconds
Timing for main: time 2016-02-05_13:00:13 on domain   3:    3.43204 elapsed seconds
Timing for main: time 2016-02-05_13:00:26 on domain   3:     .44594 elapsed seconds
Timing for main: time 2016-02-05_13:00:40 on domain   3:     .43051 elapsed seconds
Timing for Writing wrfout_d04_2016-02-05_13:00:00 for domain        4:    1.66233 elapsed seconds
Timing for main: time 2016-02-05_13:00:20 on domain   4:    2.92258 elapsed seconds
Timing for main: time 2016-02-05_13:00:40 on domain   4:     .47864 elapsed seconds
Timing for main: time 2016-02-05_13:00:40 on domain   2:   11.43514 elapsed seconds
Timing for main: time 2016-02-05_13:00:53 on domain   3:     .41757 elapsed seconds
Timing for main: time 2016-02-05_13:01:06 on domain   3:     .40618 elapsed seconds
Timing for main: time 2016-02-05_13:01:20 on domain   3:     .42407 elapsed seconds
Timing for main: time 2016-02-05_13:01:00 on domain   4:     .50088 elapsed seconds
Timing for main: time 2016-02-05_13:01:20 on domain   4:     .48045 elapsed seconds
Timing for main: time 2016-02-05_13:01:20 on domain   2:    3.45118 elapsed seconds
Timing for main: time 2016-02-05_13:01:33 on domain   3:     .41660 elapsed seconds
Timing for main: time 2016-02-05_13:01:46 on domain   3:     .40693 elapsed seconds
Timing for main: time 2016-02-05_13:02:00 on domain   3:     .40598 elapsed seconds
Timing for main: time 2016-02-05_13:01:40 on domain   4:     .49902 elapsed seconds
Timing for main: time 2016-02-05_13:02:00 on domain   4:     .47793 elapsed seconds
Timing for main: time 2016-02-05_13:02:00 on domain   2:    3.42677 elapsed seconds
Timing for main: time 2016-02-05_13:02:00 on domain   1:   22.62937 elapsed seconds
Timing for main: time 2016-02-05_13:02:13 on domain   3:     .41443 elapsed seconds
Timing for main: time 2016-02-05_13:02:26 on domain   3:     .40584 elapsed seconds
Timing for main: time 2016-02-05_13:02:40 on domain   3:     .40525 elapsed seconds
Timing for main: time 2016-02-05_13:02:20 on domain   4:     .49769 elapsed seconds
Timing for main: time 2016-02-05_13:02:40 on domain   4:     .47960 elapsed seconds
Timing for main: time 2016-02-05_13:02:40 on domain   2:    3.44880 elapsed seconds
Timing for main: time 2016-02-05_13:02:53 on domain   3:     .41756 elapsed seconds
Timing for main: time 2016-02-05_13:03:06 on domain   3:     .40632 elapsed seconds
Timing for main: time 2016-02-05_13:03:20 on domain   3:     .40549 elapsed seconds
Timing for main: time 2016-02-05_13:03:00 on domain   4:     .49755 elapsed seconds
Timing for main: time 2016-02-05_13:03:20 on domain   4:     .47873 elapsed seconds
Timing for main: time 2016-02-05_13:03:20 on domain   2:    3.42629 elapsed seconds
Timing for main: time 2016-02-05_13:03:33 on domain   3:     .42230 elapsed seconds
Timing for main: time 2016-02-05_13:03:46 on domain   3:     .40503 elapsed seconds
Timing for main: time 2016-02-05_13:04:00 on domain   3:     .40594 elapsed seconds
Timing for main: time 2016-02-05_13:03:40 on domain   4:     .49651 elapsed seconds
Timing for main: time 2016-02-05_13:04:00 on domain   4:     .47846 elapsed seconds
Timing for main: time 2016-02-05_13:04:00 on domain   2:    3.45392 elapsed seconds
Timing for main: time 2016-02-05_13:04:00 on domain   1:   10.97187 elapsed seconds
Timing for main: time 2016-02-05_13:04:13 on domain   3:     .41725 elapsed seconds
Timing for main: time 2016-02-05_13:04:26 on domain   3:     .40462 elapsed seconds
Timing for main: time 2016-02-05_13:04:40 on domain   3:     .40752 elapsed seconds
Timing for main: time 2016-02-05_13:04:20 on domain   4:     .49853 elapsed seconds
Timing for main: time 2016-02-05_13:04:40 on domain   4:     .47822 elapsed seconds
Timing for main: time 2016-02-05_13:04:40 on domain   2:    3.44429 elapsed seconds
Timing for main: time 2016-02-05_13:04:53 on domain   3:     .41772 elapsed seconds
Timing for main: time 2016-02-05_13:05:06 on domain   3:     .40548 elapsed seconds
Timing for main: time 2016-02-05_13:05:20 on domain   3:     .40653 elapsed seconds
Timing for main: time 2016-02-05_13:05:00 on domain   4:     .52115 elapsed seconds
Timing for main: time 2016-02-05_13:05:20 on domain   4:     .48243 elapsed seconds
Timing for main: time 2016-02-05_13:05:20 on domain   2:    3.45323 elapsed seconds
Timing for main: time 2016-02-05_13:05:33 on domain   3:     .41701 elapsed seconds
Timing for main: time 2016-02-05_13:05:46 on domain   3:     .40527 elapsed seconds
Timing for main: time 2016-02-05_13:06:00 on domain   3:     .40652 elapsed seconds
Timing for main: time 2016-02-05_13:05:40 on domain   4:     .49961 elapsed seconds
Timing for main: time 2016-02-05_13:06:00 on domain   4:     .47625 elapsed seconds
Timing for main: time 2016-02-05_13:06:00 on domain   2:    3.42469 elapsed seconds
Timing for main: time 2016-02-05_13:06:00 on domain   1:   10.98193 elapsed seconds
Timing for main: time 2016-02-05_13:06:13 on domain   3:     .44554 elapsed seconds
Timing for main: time 2016-02-05_13:06:26 on domain   3:     .42611 elapsed seconds
Timing for main: time 2016-02-05_13:06:40 on domain   3:     .40554 elapsed seconds
Timing for main: time 2016-02-05_13:06:20 on domain   4:     .50281 elapsed seconds
Timing for main: time 2016-02-05_13:06:40 on domain   4:     .47978 elapsed seconds
Timing for main: time 2016-02-05_13:06:40 on domain   2:    3.49995 elapsed seconds
Timing for main: time 2016-02-05_13:06:53 on domain   3:     .42118 elapsed seconds
Timing for main: time 2016-02-05_13:07:06 on domain   3:     .40563 elapsed seconds
Timing for main: time 2016-02-05_13:07:20 on domain   3:     .40522 elapsed seconds
Timing for main: time 2016-02-05_13:07:00 on domain   4:     .49925 elapsed seconds
Timing for main: time 2016-02-05_13:07:20 on domain   4:     .47848 elapsed seconds
Timing for main: time 2016-02-05_13:07:20 on domain   2:    3.42903 elapsed seconds
Timing for main: time 2016-02-05_13:07:33 on domain   3:     .42077 elapsed seconds
Timing for main: time 2016-02-05_13:07:46 on domain   3:     .40694 elapsed seconds
Timing for main: time 2016-02-05_13:08:00 on domain   3:     .40767 elapsed seconds
Timing for main: time 2016-02-05_13:07:40 on domain   4:     .49745 elapsed seconds
Timing for main: time 2016-02-05_13:08:00 on domain   4:     .47989 elapsed seconds
Timing for main: time 2016-02-05_13:08:00 on domain   2:    3.43171 elapsed seconds
Timing for main: time 2016-02-05_13:08:00 on domain   1:   11.00233 elapsed seconds
Timing for main: time 2016-02-05_13:08:13 on domain   3:     .41718 elapsed seconds
Timing for main: time 2016-02-05_13:08:26 on domain   3:     .40544 elapsed seconds
Timing for main: time 2016-02-05_13:08:40 on domain   3:     .40573 elapsed seconds
Timing for main: time 2016-02-05_13:08:20 on domain   4:     .49726 elapsed seconds
Timing for main: time 2016-02-05_13:08:40 on domain   4:     .47881 elapsed seconds
Timing for main: time 2016-02-05_13:08:40 on domain   2:    3.44511 elapsed seconds
Timing for main: time 2016-02-05_13:08:53 on domain   3:     .42226 elapsed seconds
Timing for main: time 2016-02-05_13:09:06 on domain   3:     .41088 elapsed seconds
Timing for main: time 2016-02-05_13:09:20 on domain   3:     .40550 elapsed seconds
Timing for main: time 2016-02-05_13:09:00 on domain   4:     .49701 elapsed seconds
Timing for main: time 2016-02-05_13:09:20 on domain   4:     .47830 elapsed seconds
Timing for main: time 2016-02-05_13:09:20 on domain   2:    3.45881 elapsed seconds
Timing for main: time 2016-02-05_13:09:33 on domain   3:     .41680 elapsed seconds
Timing for main: time 2016-02-05_13:09:46 on domain   3:     .40652 elapsed seconds
Timing for main: time 2016-02-05_13:10:00 on domain   3:     .40498 elapsed seconds
Timing for main: time 2016-02-05_13:09:40 on domain   4:     .50002 elapsed seconds
Timing for main: time 2016-02-05_13:10:00 on domain   4:     .50151 elapsed seconds
Timing for main: time 2016-02-05_13:10:00 on domain   2:    3.44921 elapsed seconds
Timing for main: time 2016-02-05_13:10:00 on domain   1:   10.99523 elapsed seconds
Timing for main: time 2016-02-05_13:10:13 on domain   3:     .41872 elapsed seconds
Timing for main: time 2016-02-05_13:10:26 on domain   3:     .40494 elapsed seconds
Timing for main: time 2016-02-05_13:10:40 on domain   3:     .40563 elapsed seconds
Timing for main: time 2016-02-05_13:10:20 on domain   4:     .49749 elapsed seconds
Timing for main: time 2016-02-05_13:10:40 on domain   4:     .47828 elapsed seconds
Timing for main: time 2016-02-05_13:10:40 on domain   2:    3.44300 elapsed seconds
Timing for main: time 2016-02-05_13:10:53 on domain   3:     .41726 elapsed seconds
Timing for main: time 2016-02-05_13:11:06 on domain   3:     .40555 elapsed seconds
Timing for main: time 2016-02-05_13:11:20 on domain   3:     .40605 elapsed seconds
Timing for main: time 2016-02-05_13:11:00 on domain   4:     .49789 elapsed seconds
Timing for main: time 2016-02-05_13:11:20 on domain   4:     .48186 elapsed seconds
Timing for main: time 2016-02-05_13:11:20 on domain   2:    3.43296 elapsed seconds
Timing for main: time 2016-02-05_13:11:33 on domain   3:     .43746 elapsed seconds
Timing for main: time 2016-02-05_13:11:46 on domain   3:     .40601 elapsed seconds
Timing for main: time 2016-02-05_13:12:00 on domain   3:     .40623 elapsed seconds
Timing for main: time 2016-02-05_13:11:40 on domain   4:     .49854 elapsed seconds
Timing for main: time 2016-02-05_13:12:00 on domain   4:     .47873 elapsed seconds
Timing for main: time 2016-02-05_13:12:00 on domain   2:    3.44413 elapsed seconds
Timing for main: time 2016-02-05_13:12:00 on domain   1:   10.97953 elapsed seconds
Timing for main: time 2016-02-05_13:12:13 on domain   3:     .41692 elapsed seconds
Timing for main: time 2016-02-05_13:12:26 on domain   3:     .41186 elapsed seconds
Timing for main: time 2016-02-05_13:12:40 on domain   3:     .40451 elapsed seconds
Timing for main: time 2016-02-05_13:12:20 on domain   4:     .50117 elapsed seconds
Timing for main: time 2016-02-05_13:12:40 on domain   4:     .47843 elapsed seconds
Timing for main: time 2016-02-05_13:12:40 on domain   2:    3.45203 elapsed seconds
Timing for main: time 2016-02-05_13:12:53 on domain   3:     .41747 elapsed seconds
Timing for main: time 2016-02-05_13:13:06 on domain   3:     .40586 elapsed seconds
Timing for main: time 2016-02-05_13:13:20 on domain   3:     .40943 elapsed seconds
Timing for main: time 2016-02-05_13:13:00 on domain   4:     .49461 elapsed seconds
Timing for main: time 2016-02-05_13:13:20 on domain   4:     .47821 elapsed seconds
Timing for main: time 2016-02-05_13:13:20 on domain   2:    3.42891 elapsed seconds
Timing for main: time 2016-02-05_13:13:33 on domain   3:     .41759 elapsed seconds
Timing for main: time 2016-02-05_13:13:46 on domain   3:     .40897 elapsed seconds
Timing for main: time 2016-02-05_13:14:00 on domain   3:     .40555 elapsed seconds
Timing for main: time 2016-02-05_13:13:40 on domain   4:     .49658 elapsed seconds
Timing for main: time 2016-02-05_13:14:00 on domain   4:     .47924 elapsed seconds
Timing for main: time 2016-02-05_13:14:00 on domain   2:    3.42723 elapsed seconds
Timing for main: time 2016-02-05_13:14:00 on domain   1:   10.94952 elapsed seconds
Timing for main: time 2016-02-05_13:14:13 on domain   3:     .41708 elapsed seconds
Timing for main: time 2016-02-05_13:14:26 on domain   3:     .40721 elapsed seconds
Timing for main: time 2016-02-05_13:14:40 on domain   3:     .41133 elapsed seconds
Timing for main: time 2016-02-05_13:14:20 on domain   4:     .49666 elapsed seconds
Timing for main: time 2016-02-05_13:14:40 on domain   4:     .47847 elapsed seconds
Timing for main: time 2016-02-05_13:14:40 on domain   2:    3.47498 elapsed seconds
Timing for main: time 2016-02-05_13:14:53 on domain   3:     .41723 elapsed seconds
Timing for main: time 2016-02-05_13:15:06 on domain   3:     .40638 elapsed seconds
Timing for main: time 2016-02-05_13:15:20 on domain   3:     .40552 elapsed seconds
Timing for main: time 2016-02-05_13:15:00 on domain   4:     .52055 elapsed seconds
Timing for main: time 2016-02-05_13:15:20 on domain   4:     .47861 elapsed seconds
Timing for main: time 2016-02-05_13:15:20 on domain   2:    3.44824 elapsed seconds
Timing for main: time 2016-02-05_13:15:33 on domain   3:     .41757 elapsed seconds
Timing for main: time 2016-02-05_13:15:46 on domain   3:     .40603 elapsed seconds
Timing for main: time 2016-02-05_13:16:00 on domain   3:     .40620 elapsed seconds
Timing for main: time 2016-02-05_13:15:40 on domain   4:     .49680 elapsed seconds
Timing for main: time 2016-02-05_13:16:00 on domain   4:     .47885 elapsed seconds
Timing for main: time 2016-02-05_13:16:00 on domain   2:    3.42522 elapsed seconds
Timing for main: time 2016-02-05_13:16:00 on domain   1:   10.99004 elapsed seconds
Timing for main: time 2016-02-05_13:16:13 on domain   3:     .51497 elapsed seconds
Timing for main: time 2016-02-05_13:16:26 on domain   3:     .40541 elapsed seconds
Timing for main: time 2016-02-05_13:16:40 on domain   3:     .42524 elapsed seconds
Timing for main: time 2016-02-05_13:16:20 on domain   4:     .49777 elapsed seconds
Timing for main: time 2016-02-05_13:16:40 on domain   4:     .47795 elapsed seconds
Timing for main: time 2016-02-05_13:16:40 on domain   2:    3.56153 elapsed seconds
Timing for main: time 2016-02-05_13:16:53 on domain   3:     .41724 elapsed seconds
Timing for main: time 2016-02-05_13:17:06 on domain   3:     .40530 elapsed seconds
Timing for main: time 2016-02-05_13:17:20 on domain   3:     .40584 elapsed seconds
Timing for main: time 2016-02-05_13:17:00 on domain   4:     .50341 elapsed seconds
Timing for main: time 2016-02-05_13:17:20 on domain   4:     .47996 elapsed seconds
Timing for main: time 2016-02-05_13:17:20 on domain   2:    3.43067 elapsed seconds
[...]
Timing for main: time 2016-02-05_17:36:00 on domain   2:    3.46536 elapsed seconds
Timing for main: time 2016-02-05_17:36:00 on domain   1:   11.04207 elapsed seconds
Timing for main: time 2016-02-05_17:36:13 on domain   3:     .41876 elapsed seconds
Timing for main: time 2016-02-05_17:36:26 on domain   3:     .40719 elapsed seconds
Timing for main: time 2016-02-05_17:36:40 on domain   3:     .40617 elapsed seconds
Timing for main: time 2016-02-05_17:36:20 on domain   4:     .49875 elapsed seconds
Timing for main: time 2016-02-05_17:36:40 on domain   4:     .47991 elapsed seconds
Timing for main: time 2016-02-05_17:36:40 on domain   2:    3.45394 elapsed seconds
Timing for main: time 2016-02-05_17:36:53 on domain   3:     .42109 elapsed seconds
Timing for main: time 2016-02-05_17:37:06 on domain   3:     .40593 elapsed seconds
Timing for main: time 2016-02-05_17:37:20 on domain   3:     .42604 elapsed seconds
Timing for main: time 2016-02-05_17:37:00 on domain   4:     .49961 elapsed seconds
Timing for main: time 2016-02-05_17:37:20 on domain   4:     .47855 elapsed seconds
Timing for main: time 2016-02-05_17:37:20 on domain   2:    3.45636 elapsed seconds
Timing for main: time 2016-02-05_17:37:33 on domain   3:     .41868 elapsed seconds
Timing for main: time 2016-02-05_17:37:46 on domain   3:     .40699 elapsed seconds
Timing for main: time 2016-02-05_17:38:00 on domain   3:     .40588 elapsed seconds
Timing for main: time 2016-02-05_17:37:40 on domain   4:     .49623 elapsed seconds
Timing for main: time 2016-02-05_17:38:00 on domain   4:     .48032 elapsed seconds
Timing for main: time 2016-02-05_17:38:00 on domain   2:    3.43053 elapsed seconds
Timing for main: time 2016-02-05_17:38:00 on domain   1:   10.99194 elapsed seconds
Timing for main: time 2016-02-05_17:38:13 on domain   3:     .41942 elapsed seconds
Timing for main: time 2016-02-05_17:38:26 on domain   3:     .40731 elapsed seconds
Timing for main: time 2016-02-05_17:38:40 on domain   3:     .40778 elapsed seconds
Timing for main: time 2016-02-05_17:38:20 on domain   4:     .49762 elapsed seconds
Timing for main: time 2016-02-05_17:38:40 on domain   4:     .48178 elapsed seconds
Timing for main: time 2016-02-05_17:38:40 on domain   2:    3.45192 elapsed seconds
Timing for main: time 2016-02-05_17:38:53 on domain   3:     .41962 elapsed seconds
Timing for main: time 2016-02-05_17:39:06 on domain   3:     .40591 elapsed seconds
Timing for main: time 2016-02-05_17:39:20 on domain   3:     .40709 elapsed seconds
Timing for main: time 2016-02-05_17:39:00 on domain   4:     .49795 elapsed seconds
Timing for main: time 2016-02-05_17:39:20 on domain   4:     .47906 elapsed seconds
Timing for main: time 2016-02-05_17:39:20 on domain   2:    3.43026 elapsed seconds
Timing for main: time 2016-02-05_17:39:33 on domain   3:     .41893 elapsed seconds
Timing for main: time 2016-02-05_17:39:46 on domain   3:     .40684 elapsed seconds
Timing for main: time 2016-02-05_17:40:00 on domain   3:     .40618 elapsed seconds
Timing for main: time 2016-02-05_17:39:40 on domain   4:     .49852 elapsed seconds
Timing for main: time 2016-02-05_17:40:00 on domain   4:     .50399 elapsed seconds
Timing for main: time 2016-02-05_17:40:00 on domain   2:    3.45537 elapsed seconds
Timing for main: time 2016-02-05_17:40:00 on domain   1:   10.98816 elapsed seconds
Timing for main: time 2016-02-05_17:40:13 on domain   3:     .42091 elapsed seconds
Timing for main: time 2016-02-05_17:40:26 on domain   3:     .40711 elapsed seconds
Timing for main: time 2016-02-05_17:40:40 on domain   3:     .40606 elapsed seconds
Timing for main: time 2016-02-05_17:40:20 on domain   4:     .49707 elapsed seconds
Timing for main: time 2016-02-05_17:40:40 on domain   4:     .48030 elapsed seconds
Timing for main: time 2016-02-05_17:40:40 on domain   2:    3.44955 elapsed seconds
Timing for main: time 2016-02-05_17:40:53 on domain   3:     .42271 elapsed seconds
Timing for main: time 2016-02-05_17:41:06 on domain   3:     .40721 elapsed seconds
Timing for main: time 2016-02-05_17:41:20 on domain   3:     .40653 elapsed seconds
Timing for main: time 2016-02-05_17:41:00 on domain   4:     .50134 elapsed seconds
Timing for main: time 2016-02-05_17:41:20 on domain   4:     .48084 elapsed seconds
Timing for main: time 2016-02-05_17:41:20 on domain   2:    3.46338 elapsed seconds
Timing for main: time 2016-02-05_17:41:33 on domain   3:     .41919 elapsed seconds
Timing for main: time 2016-02-05_17:41:46 on domain   3:     .40744 elapsed seconds
Timing for main: time 2016-02-05_17:42:00 on domain   3:     .40626 elapsed seconds
Timing for main: time 2016-02-05_17:41:40 on domain   4:     .49704 elapsed seconds
Timing for main: time 2016-02-05_17:42:00 on domain   4:     .48064 elapsed seconds
Timing for main: time 2016-02-05_17:42:00 on domain   2:    3.43142 elapsed seconds
Timing for main: time 2016-02-05_17:42:00 on domain   1:   11.01592 elapsed seconds
Timing for main: time 2016-02-05_17:42:13 on domain   3:     .41949 elapsed seconds
Timing for main: time 2016-02-05_17:42:26 on domain   3:     .42780 elapsed seconds
Timing for main: time 2016-02-05_17:42:40 on domain   3:     .40850 elapsed seconds
Timing for main: time 2016-02-05_17:42:20 on domain   4:     .49703 elapsed seconds
Timing for main: time 2016-02-05_17:42:40 on domain   4:     .48259 elapsed seconds
Timing for main: time 2016-02-05_17:42:40 on domain   2:    3.47315 elapsed seconds
Timing for main: time 2016-02-05_17:42:53 on domain   3:     .42090 elapsed seconds
Timing for main: time 2016-02-05_17:43:06 on domain   3:     .41156 elapsed seconds
Timing for main: time 2016-02-05_17:43:20 on domain   3:     .40593 elapsed seconds
Timing for main: time 2016-02-05_17:43:00 on domain   4:     .49721 elapsed seconds
Timing for main: time 2016-02-05_17:43:20 on domain   4:     .48067 elapsed seconds
Timing for main: time 2016-02-05_17:43:20 on domain   2:    3.43636 elapsed seconds
Timing for main: time 2016-02-05_17:43:33 on domain   3:     .41908 elapsed seconds
Timing for main: time 2016-02-05_17:43:46 on domain   3:     .40656 elapsed seconds
Timing for main: time 2016-02-05_17:44:00 on domain   3:     .40618 elapsed seconds
Timing for main: time 2016-02-05_17:43:40 on domain   4:     .49776 elapsed seconds
Timing for main: time 2016-02-05_17:44:00 on domain   4:     .58902 elapsed seconds
Timing for main: time 2016-02-05_17:44:00 on domain   2:    3.53942 elapsed seconds
Timing for main: time 2016-02-05_17:44:00 on domain   1:   11.09920 elapsed seconds
Timing for main: time 2016-02-05_17:44:13 on domain   3:     .41958 elapsed seconds
Timing for main: time 2016-02-05_17:44:26 on domain   3:     .40632 elapsed seconds
Timing for main: time 2016-02-05_17:44:40 on domain   3:     .40894 elapsed seconds
Timing for main: time 2016-02-05_17:44:20 on domain   4:     .49707 elapsed seconds
Timing for main: time 2016-02-05_17:44:40 on domain   4:     .48039 elapsed seconds
Timing for main: time 2016-02-05_17:44:40 on domain   2:    3.44963 elapsed seconds
Timing for main: time 2016-02-05_17:44:53 on domain   3:     .42207 elapsed seconds
Timing for main: time 2016-02-05_17:45:06 on domain   3:     .40685 elapsed seconds
Timing for main: time 2016-02-05_17:45:20 on domain   3:     .40664 elapsed seconds
Timing for main: time 2016-02-05_17:45:00 on domain   4:     .51964 elapsed seconds
Timing for main: time 2016-02-05_17:45:20 on domain   4:     .48076 elapsed seconds
Timing for main: time 2016-02-05_17:45:20 on domain   2:    3.45717 elapsed seconds
Timing for main: time 2016-02-05_17:45:33 on domain   3:     .42095 elapsed seconds
Timing for main: time 2016-02-05_17:45:46 on domain   3:     .40682 elapsed seconds
Timing for main: time 2016-02-05_17:46:00 on domain   3:     .40673 elapsed seconds
Timing for main: time 2016-02-05_17:45:40 on domain   4:     .50054 elapsed seconds
Timing for main: time 2016-02-05_17:46:00 on domain   4:     .48232 elapsed seconds
Timing for main: time 2016-02-05_17:46:00 on domain   2:    3.43818 elapsed seconds
Timing for main: time 2016-02-05_17:46:00 on domain   1:   10.99723 elapsed seconds
Timing for main: time 2016-02-05_17:46:13 on domain   3:     .42373 elapsed seconds
Timing for main: time 2016-02-05_17:46:26 on domain   3:     .41362 elapsed seconds
Timing for main: time 2016-02-05_17:46:40 on domain   3:     .40639 elapsed seconds
Timing for main: time 2016-02-05_17:46:20 on domain   4:     .49891 elapsed seconds
Timing for main: time 2016-02-05_17:46:40 on domain   4:     .48170 elapsed seconds
Timing for main: time 2016-02-05_17:46:40 on domain   2:    3.48808 elapsed seconds
Timing for main: time 2016-02-05_17:46:53 on domain   3:     .41683 elapsed seconds
Timing for main: time 2016-02-05_17:47:06 on domain   3:     .41032 elapsed seconds
Timing for main: time 2016-02-05_17:47:20 on domain   3:     .40711 elapsed seconds
Timing for main: time 2016-02-05_17:47:00 on domain   4:     .49722 elapsed seconds
Timing for main: time 2016-02-05_17:47:20 on domain   4:     .48181 elapsed seconds
Timing for main: time 2016-02-05_17:47:20 on domain   2:    3.53461 elapsed seconds
Timing for main: time 2016-02-05_17:47:33 on domain   3:     .44144 elapsed seconds
Timing for main: time 2016-02-05_17:47:46 on domain   3:     .41203 elapsed seconds
Timing for main: time 2016-02-05_17:48:00 on domain   3:     .40665 elapsed seconds
Timing for main: time 2016-02-05_17:47:40 on domain   4:     .49712 elapsed seconds
Timing for main: time 2016-02-05_17:48:00 on domain   4:     .48122 elapsed seconds
Timing for main: time 2016-02-05_17:48:00 on domain   2:    3.45974 elapsed seconds
Timing for main: time 2016-02-05_17:48:00 on domain   1:   11.15581 elapsed seconds
Timing for main: time 2016-02-05_17:48:13 on domain   3:     .41918 elapsed seconds
Timing for main: time 2016-02-05_17:48:26 on domain   3:     .40859 elapsed seconds
Timing for main: time 2016-02-05_17:48:40 on domain   3:     .40543 elapsed seconds
Timing for main: time 2016-02-05_17:48:20 on domain   4:     .49683 elapsed seconds
Timing for main: time 2016-02-05_17:48:40 on domain   4:     .48136 elapsed seconds
Timing for main: time 2016-02-05_17:48:40 on domain   2:    3.45114 elapsed seconds
Timing for main: time 2016-02-05_17:48:53 on domain   3:     .41939 elapsed seconds
Timing for main: time 2016-02-05_17:49:06 on domain   3:     .40655 elapsed seconds
Timing for main: time 2016-02-05_17:49:20 on domain   3:     .40664 elapsed seconds
Timing for main: time 2016-02-05_17:49:00 on domain   4:     .49727 elapsed seconds
Timing for main: time 2016-02-05_17:49:20 on domain   4:     .48072 elapsed seconds
Timing for main: time 2016-02-05_17:49:20 on domain   2:    3.43254 elapsed seconds
Timing for main: time 2016-02-05_17:49:33 on domain   3:     .42213 elapsed seconds
Timing for main: time 2016-02-05_17:49:46 on domain   3:     .40660 elapsed seconds
Timing for main: time 2016-02-05_17:50:00 on domain   3:     .40669 elapsed seconds
Timing for main: time 2016-02-05_17:49:40 on domain   4:     .49710 elapsed seconds
Timing for main: time 2016-02-05_17:50:00 on domain   4:     .50359 elapsed seconds
Timing for main: time 2016-02-05_17:50:00 on domain   2:    3.45761 elapsed seconds
Timing for main: time 2016-02-05_17:50:00 on domain   1:   10.99070 elapsed seconds
Timing for main: time 2016-02-05_17:50:13 on domain   3:     .41970 elapsed seconds
Timing for main: time 2016-02-05_17:50:26 on domain   3:     .40652 elapsed seconds
Timing for main: time 2016-02-05_17:50:40 on domain   3:     .40660 elapsed seconds
Timing for main: time 2016-02-05_17:50:20 on domain   4:     .49693 elapsed seconds
Timing for main: time 2016-02-05_17:50:40 on domain   4:     .48096 elapsed seconds
Timing for main: time 2016-02-05_17:50:40 on domain   2:    3.44960 elapsed seconds
Timing for main: time 2016-02-05_17:50:53 on domain   3:     .41924 elapsed seconds
Timing for main: time 2016-02-05_17:51:06 on domain   3:     .40641 elapsed seconds
Timing for main: time 2016-02-05_17:51:20 on domain   3:     .40656 elapsed seconds
Timing for main: time 2016-02-05_17:51:00 on domain   4:     .50039 elapsed seconds
Timing for main: time 2016-02-05_17:51:20 on domain   4:     .48014 elapsed seconds
Timing for main: time 2016-02-05_17:51:20 on domain   2:    3.43478 elapsed seconds
Timing for main: time 2016-02-05_17:51:33 on domain   3:     .41947 elapsed seconds
Timing for main: time 2016-02-05_17:51:46 on domain   3:     .40736 elapsed seconds
Timing for main: time 2016-02-05_17:52:00 on domain   3:     .40899 elapsed seconds
Timing for main: time 2016-02-05_17:51:40 on domain   4:     .49920 elapsed seconds
Timing for main: time 2016-02-05_17:52:00 on domain   4:     .48144 elapsed seconds
Timing for main: time 2016-02-05_17:52:00 on domain   2:    3.47601 elapsed seconds
Timing for main: time 2016-02-05_17:52:00 on domain   1:   11.01042 elapsed seconds
Timing for main: time 2016-02-05_17:52:13 on domain   3:     .41973 elapsed seconds
Timing for main: time 2016-02-05_17:52:26 on domain   3:     .40627 elapsed seconds
Timing for main: time 2016-02-05_17:52:40 on domain   3:     .43407 elapsed seconds
Timing for main: time 2016-02-05_17:52:20 on domain   4:     .49808 elapsed seconds
Timing for main: time 2016-02-05_17:52:40 on domain   4:     .48173 elapsed seconds
Timing for main: time 2016-02-05_17:52:40 on domain   2:    3.47818 elapsed seconds
Timing for main: time 2016-02-05_17:52:53 on domain   3:     .42161 elapsed seconds
Timing for main: time 2016-02-05_17:53:06 on domain   3:     .40647 elapsed seconds
Timing for main: time 2016-02-05_17:53:20 on domain   3:     .41248 elapsed seconds
Timing for main: time 2016-02-05_17:53:00 on domain   4:     .50041 elapsed seconds
Timing for main: time 2016-02-05_17:53:20 on domain   4:     .48195 elapsed seconds
Timing for main: time 2016-02-05_17:53:20 on domain   2:    3.44255 elapsed seconds
Timing for main: time 2016-02-05_17:53:33 on domain   3:     .42572 elapsed seconds
Timing for main: time 2016-02-05_17:53:46 on domain   3:     .40663 elapsed seconds
Timing for main: time 2016-02-05_17:54:00 on domain   3:     .40667 elapsed seconds
Timing for main: time 2016-02-05_17:53:40 on domain   4:     .50254 elapsed seconds
Timing for main: time 2016-02-05_17:54:00 on domain   4:     .48120 elapsed seconds
Timing for main: time 2016-02-05_17:54:00 on domain   2:    3.44577 elapsed seconds
Timing for main: time 2016-02-05_17:54:00 on domain   1:   11.03843 elapsed seconds
Timing for main: time 2016-02-05_17:54:13 on domain   3:     .42239 elapsed seconds
Timing for main: time 2016-02-05_17:54:26 on domain   3:     .40624 elapsed seconds
Timing for main: time 2016-02-05_17:54:40 on domain   3:     .40630 elapsed seconds
Timing for main: time 2016-02-05_17:54:20 on domain   4:     .49822 elapsed seconds
Timing for main: time 2016-02-05_17:54:40 on domain   4:     .48182 elapsed seconds
Timing for main: time 2016-02-05_17:54:40 on domain   2:    3.45294 elapsed seconds
Timing for main: time 2016-02-05_17:54:53 on domain   3:     .42285 elapsed seconds
Timing for main: time 2016-02-05_17:55:06 on domain   3:     .40634 elapsed seconds
Timing for main: time 2016-02-05_17:55:20 on domain   3:     .40673 elapsed seconds
Timing for main: time 2016-02-05_17:55:00 on domain   4:     .52129 elapsed seconds
Timing for main: time 2016-02-05_17:55:20 on domain   4:     .48090 elapsed seconds
Timing for main: time 2016-02-05_17:55:20 on domain   2:    3.45965 elapsed seconds
Timing for main: time 2016-02-05_17:55:33 on domain   3:     .42390 elapsed seconds
Timing for main: time 2016-02-05_17:55:46 on domain   3:     .40688 elapsed seconds
Timing for main: time 2016-02-05_17:56:00 on domain   3:     .40667 elapsed seconds
Timing for main: time 2016-02-05_17:55:40 on domain   4:     .49946 elapsed seconds
Timing for main: time 2016-02-05_17:56:00 on domain   4:     .48009 elapsed seconds
Timing for main: time 2016-02-05_17:56:00 on domain   2:    3.43938 elapsed seconds
Timing for main: time 2016-02-05_17:56:00 on domain   1:   11.00309 elapsed seconds
Timing for main: time 2016-02-05_17:56:13 on domain   3:     .41938 elapsed seconds
Timing for main: time 2016-02-05_17:56:26 on domain   3:     .40789 elapsed seconds
Timing for main: time 2016-02-05_17:56:40 on domain   3:     .40625 elapsed seconds
Timing for main: time 2016-02-05_17:56:20 on domain   4:     .49649 elapsed seconds
Timing for main: time 2016-02-05_17:56:40 on domain   4:     .48192 elapsed seconds
Timing for main: time 2016-02-05_17:56:40 on domain   2:    3.45128 elapsed seconds
Timing for main: time 2016-02-05_17:56:53 on domain   3:     .41899 elapsed seconds
Timing for main: time 2016-02-05_17:57:06 on domain   3:     .40701 elapsed seconds
Timing for main: time 2016-02-05_17:57:20 on domain   3:     .40689 elapsed seconds
Timing for main: time 2016-02-05_17:57:00 on domain   4:     .49960 elapsed seconds
Timing for main: time 2016-02-05_17:57:20 on domain   4:     .48149 elapsed seconds
Timing for main: time 2016-02-05_17:57:20 on domain   2:    3.46000 elapsed seconds
Timing for main: time 2016-02-05_17:57:33 on domain   3:     .41987 elapsed seconds
Timing for main: time 2016-02-05_17:57:46 on domain   3:     .42598 elapsed seconds
Timing for main: time 2016-02-05_17:58:00 on domain   3:     .40631 elapsed seconds
Timing for main: time 2016-02-05_17:57:40 on domain   4:     .49523 elapsed seconds
Timing for main: time 2016-02-05_17:58:00 on domain   4:     .48631 elapsed seconds
Timing for main: time 2016-02-05_17:58:00 on domain   2:    3.45716 elapsed seconds
Timing for main: time 2016-02-05_17:58:00 on domain   1:   11.01830 elapsed seconds
  photolysis_driver: called for domain  1
Timing for main: time 2016-02-05_17:58:13 on domain   3:     .42240 elapsed seconds
Timing for main: time 2016-02-05_17:58:26 on domain   3:     .40643 elapsed seconds
Timing for main: time 2016-02-05_17:58:40 on domain   3:     .40648 elapsed seconds
Timing for main: time 2016-02-05_17:58:20 on domain   4:     .49747 elapsed seconds
Timing for main: time 2016-02-05_17:58:40 on domain   4:     .48075 elapsed seconds
Timing for main: time 2016-02-05_17:58:40 on domain   2:    3.45163 elapsed seconds
Timing for main: time 2016-02-05_17:58:53 on domain   3:     .42225 elapsed seconds
Timing for main: time 2016-02-05_17:59:06 on domain   3:     .40881 elapsed seconds
Timing for main: time 2016-02-05_17:59:20 on domain   3:     .40612 elapsed seconds
Timing for main: time 2016-02-05_17:59:00 on domain   4:     .49760 elapsed seconds
Timing for main: time 2016-02-05_17:59:20 on domain   4:     .48255 elapsed seconds
Timing for main: time 2016-02-05_17:59:20 on domain   2:    3.43918 elapsed seconds
  photolysis_driver: called for domain  2
Timing for main: time 2016-02-05_17:59:33 on domain   3:     .42338 elapsed seconds
Timing for main: time 2016-02-05_17:59:46 on domain   3:     .40618 elapsed seconds
  photolysis_driver: called for domain  3
Timing for main: time 2016-02-05_18:00:00 on domain   3:    2.69280 elapsed seconds
Timing for Writing wrfout_d03_2016-02-05_18:00:00 for domain        3:    1.52387 elapsed seconds
Timing for main: time 2016-02-05_17:59:40 on domain   4:     .54416 elapsed seconds
  photolysis_driver: called for domain  4
Timing for main: time 2016-02-05_18:00:00 on domain   4:    3.16414 elapsed seconds
Timing for Writing wrfout_d04_2016-02-05_18:00:00 for domain        4:    1.71974 elapsed seconds
Timing for main: time 2016-02-05_18:00:00 on domain   2:   14.56831 elapsed seconds
Timing for Writing wrfout_d02_2016-02-05_18:00:00 for domain        2:    3.58699 elapsed seconds
Timing for main: time 2016-02-05_18:00:00 on domain   1:   27.22038 elapsed seconds
Timing for Writing wrfout_d01_2016-02-05_18:00:00 for domain        1:    3.29316 elapsed seconds
 d01 2016-02-05_18:00:00 wrf: SUCCESS COMPLETE WRF
