taskid: 0 hostname: p10a51.pbm.ihost.com
  Ntasks in X  10 , ntasks in Y  16
 Setting blank km_opt entries to domain #1 values.
  --> The km_opt entry in the namelist.input is now max_domains.
 Setting blank diff_opt entries to domain #1 values.
  --> The diff_opt entry in the namelist.input is now max_domains.
 --- WARNING: traj_opt is zero, but num_traj is not zero; setting num_traj to zero.
 --- NOTE: hypsometric_opt is 2, setting adjust_heights = F
 --- NOTE: sst_update is 0, setting io_form_auxinput4 = 0 and auxinput4_interval = 0 for all domains
 --- NOTE: sst_update is 0, setting io_form_auxinput4 = 0 and auxinput4_interval = 0 for all domains
 --- NOTE: sst_update is 0, setting io_form_auxinput4 = 0 and auxinput4_interval = 0 for all domains
 --- NOTE: sst_update is 0, setting io_form_auxinput4 = 0 and auxinput4_interval = 0 for all domains
 --- NOTE: grid_fdda is 0 for domain      1, setting gfdda interval and ending time to 0 for that domain.
 --- NOTE: both grid_sfdda and pxlsm_soil_nudge are 0 for domain      1, setting sgfdda interval and ending time to 0 for that domain.
 --- NOTE: obs_nudge_opt is 0 for domain      1, setting obs nudging interval and ending time to 0 for that domain.
 --- NOTE: grid_fdda is 0 for domain      2, setting gfdda interval and ending time to 0 for that domain.
 --- NOTE: both grid_sfdda and pxlsm_soil_nudge are 0 for domain      2, setting sgfdda interval and ending time to 0 for that domain.
 --- NOTE: obs_nudge_opt is 0 for domain      2, setting obs nudging interval and ending time to 0 for that domain.
 --- NOTE: grid_fdda is 0 for domain      3, setting gfdda interval and ending time to 0 for that domain.
 --- NOTE: both grid_sfdda and pxlsm_soil_nudge are 0 for domain      3, setting sgfdda interval and ending time to 0 for that domain.
 --- NOTE: obs_nudge_opt is 0 for domain      3, setting obs nudging interval and ending time to 0 for that domain.
 --- NOTE: grid_fdda is 0 for domain      4, setting gfdda interval and ending time to 0 for that domain.
 --- NOTE: both grid_sfdda and pxlsm_soil_nudge are 0 for domain      4, setting sgfdda interval and ending time to 0 for that domain.
 --- NOTE: obs_nudge_opt is 0 for domain      4, setting obs nudging interval and ending time to 0 for that domain.
 bl_pbl_physics /= 4, implies mfshconv must be 0, resetting
 --- NOTE: num_soil_layers has been set to      4
 WRF V3.6 MODEL
  *************************************
  Parent domain
  ids,ide,jds,jde  1 271 1 181
  ims,ime,jms,jme  -4 34 -4 19
  ips,ipe,jps,jpe  1 27 1 12
  *************************************
 DYNAMICS OPTION: Eulerian Mass Coordinate
    alloc_space_field: domain  1 ,  95252168  bytes allocated
   med_initialdata_input: calling input_input
Timing for processing wrfinput file (stream 0) for domain        1:    3.91679 elapsed seconds
 INPUT LandUse = "USGS"
  LANDUSE TYPE = "USGS" FOUND 33  CATEGORIES 2  SEASONS WATER CATEGORY =  16  SNOW CATEGORY =  24
 INITIALIZE THREE Noah LSM RELATED TABLES
  LANDUSE TYPE = USGS FOUND 27  CATEGORIES
  INPUT SOIL TEXTURE CLASSIFICATION = STAS
  SOIL TEXTURE CLASSIFICATION = STAS FOUND 19  CATEGORIES
 *********************************************************************
 *             PROGRAM:WRF/CHEM V3.6 MODEL
 *                                                                   *
 *    PLEASE REPORT ANY BUGS TO WRF/CHEM HELP at                     *
 *                                                                   *
 *              wrfchemhelp.gsd@noaa.gov                             *
 *                                                                   *
 *********************************************************************
 WARNING: dust option 1 currently works only with the GOCART aerosol option.
 WARNING: sea salt option 1 currently works only with the GOCART aerosol option.
  *************************************
  Nesting domain
  ids,ide,jds,jde  1 361 1 253
  ims,ime,jms,jme  -4 48 -4 27
  ips,ipe,jps,jpe  1 36 1 16
  INTERMEDIATE domain
  ids,ide,jds,jde  74 199 47 136
  ims,ime,jms,jme  69 97 42 63
  ips,ipe,jps,jpe  72 87 45 53
  *************************************
 d01 2016-02-05_12:00:00  alloc_space_field: domain  2 ,  168236264  bytes allocated
 d01 2016-02-05_12:00:00  alloc_space_field: domain  2 ,  8036248  bytes allocated
 d01 2016-02-05_12:00:00 *** Initializing nest domain # 2 from an input file. ***
 d01 2016-02-05_12:00:00 med_initialdata_input: calling input_input
Timing for processing wrfinput file (stream 0) for domain        2:    6.52952 elapsed seconds
 INPUT LandUse = "USGS"
  LANDUSE TYPE = "USGS" FOUND 33  CATEGORIES 2  SEASONS WATER CATEGORY =  16  SNOW CATEGORY =  24
 INITIALIZE THREE Noah LSM RELATED TABLES
  LANDUSE TYPE = USGS FOUND 27  CATEGORIES
  INPUT SOIL TEXTURE CLASSIFICATION = STAS
  SOIL TEXTURE CLASSIFICATION = STAS FOUND 19  CATEGORIES
 *********************************************************************
 *             PROGRAM:WRF/CHEM V3.6 MODEL
 *                                                                   *
 *    PLEASE REPORT ANY BUGS TO WRF/CHEM HELP at                     *
 *                                                                   *
 *              wrfchemhelp.gsd@noaa.gov                             *
 *                                                                   *
 *********************************************************************
 WARNING: dust option 1 currently works only with the GOCART aerosol option.
 WARNING: sea salt option 1 currently works only with the GOCART aerosol option.
 INPUT LandUse = "USGS"
  LANDUSE TYPE = "USGS" FOUND 33  CATEGORIES 2  SEASONS WATER CATEGORY =  16  SNOW CATEGORY =  24
 INITIALIZE THREE Noah LSM RELATED TABLES
  LANDUSE TYPE = USGS FOUND 27  CATEGORIES
  INPUT SOIL TEXTURE CLASSIFICATION = STAS
  SOIL TEXTURE CLASSIFICATION = STAS FOUND 19  CATEGORIES
 *********************************************************************
 *             PROGRAM:WRF/CHEM V3.6 MODEL
 *                                                                   *
 *    PLEASE REPORT ANY BUGS TO WRF/CHEM HELP at                     *
 *                                                                   *
 *              wrfchemhelp.gsd@noaa.gov                             *
 *                                                                   *
 *********************************************************************
 WARNING: dust option 1 currently works only with the GOCART aerosol option.
 WARNING: sea salt option 1 currently works only with the GOCART aerosol option.
 INPUT LandUse = "USGS"
  LANDUSE TYPE = "USGS" FOUND 33  CATEGORIES 2  SEASONS WATER CATEGORY =  16  SNOW CATEGORY =  24
 INITIALIZE THREE Noah LSM RELATED TABLES
  LANDUSE TYPE = USGS FOUND 27  CATEGORIES
  INPUT SOIL TEXTURE CLASSIFICATION = STAS
  SOIL TEXTURE CLASSIFICATION = STAS FOUND 19  CATEGORIES
 *********************************************************************
 *             PROGRAM:WRF/CHEM V3.6 MODEL
 *                                                                   *
 *    PLEASE REPORT ANY BUGS TO WRF/CHEM HELP at                     *
 *                                                                   *
 *              wrfchemhelp.gsd@noaa.gov                             *
 *                                                                   *
 *********************************************************************
 WARNING: dust option 1 currently works only with the GOCART aerosol option.
 WARNING: sea salt option 1 currently works only with the GOCART aerosol option.
Timing for Writing wrfout_d01_2016-02-05_12:00:00 for domain        1:    1.40095 elapsed seconds
  mediation_integrate: med_read_wrf_chem_emissions: Open file wrfchemi_12z_d01
  HOURLY EMISSIONS UPDATE TIME         .0        .0
 mediation_integrate: med_read_wrf_chem_emissions: Read emissions for time 2016-02-05_12:00:00
 **WARNING** Time in input file not being checked **WARNING**
Timing for processing lateral boundary for domain        1:    3.09299 elapsed seconds
  Tile Strategy is not specified. Assuming 1D-Y
 WRF TILE   1 IS      1 IE     27 JS      1 JE     12
 WRF NUMBER OF TILES =   1
  photolysis_driver: called for domain  1
  *************************************
  Nesting domain
  ids,ide,jds,jde  1 307 1 241
  ims,ime,jms,jme  -4 42 -4 27
  ips,ipe,jps,jpe  1 31 1 15
  INTERMEDIATE domain
  ids,ide,jds,jde  124 231 35 120
  ims,ime,jms,jme  119 145 30 51
  ips,ipe,jps,jpe  122 135 33 41
  *************************************
 d02 2016-02-05_12:00:00  alloc_space_field: domain  3 ,  149693108  bytes allocated
 d02 2016-02-05_12:00:00  alloc_space_field: domain  3 ,  7482024  bytes allocated
 d02 2016-02-05_12:00:00 *** Initializing nest domain # 3 from an input file. ***
 d02 2016-02-05_12:00:00 med_initialdata_input: calling input_input
Timing for processing wrfinput file (stream 0) for domain        3:    5.63294 elapsed seconds
 INPUT LandUse = "USGS"
  LANDUSE TYPE = "USGS" FOUND 33  CATEGORIES 2  SEASONS WATER CATEGORY =  16  SNOW CATEGORY =  24
 INITIALIZE THREE Noah LSM RELATED TABLES
  LANDUSE TYPE = USGS FOUND 27  CATEGORIES
  INPUT SOIL TEXTURE CLASSIFICATION = STAS
  SOIL TEXTURE CLASSIFICATION = STAS FOUND 19  CATEGORIES
 *********************************************************************
 *             PROGRAM:WRF/CHEM V3.6 MODEL
 *                                                                   *
 *    PLEASE REPORT ANY BUGS TO WRF/CHEM HELP at                     *
 *                                                                   *
 *              wrfchemhelp.gsd@noaa.gov                             *
 *                                                                   *
 *********************************************************************
 WARNING: dust option 1 currently works only with the GOCART aerosol option.
 WARNING: sea salt option 1 currently works only with the GOCART aerosol option.
 INPUT LandUse = "USGS"
  LANDUSE TYPE = "USGS" FOUND 33  CATEGORIES 2  SEASONS WATER CATEGORY =  16  SNOW CATEGORY =  24
 INITIALIZE THREE Noah LSM RELATED TABLES
  LANDUSE TYPE = USGS FOUND 27  CATEGORIES
  INPUT SOIL TEXTURE CLASSIFICATION = STAS
  SOIL TEXTURE CLASSIFICATION = STAS FOUND 19  CATEGORIES
 *********************************************************************
 *             PROGRAM:WRF/CHEM V3.6 MODEL
 *                                                                   *
 *    PLEASE REPORT ANY BUGS TO WRF/CHEM HELP at                     *
 *                                                                   *
 *              wrfchemhelp.gsd@noaa.gov                             *
 *                                                                   *
 *********************************************************************
 WARNING: dust option 1 currently works only with the GOCART aerosol option.
 WARNING: sea salt option 1 currently works only with the GOCART aerosol option.
 INPUT LandUse = "USGS"
  LANDUSE TYPE = "USGS" FOUND 33  CATEGORIES 2  SEASONS WATER CATEGORY =  16  SNOW CATEGORY =  24
 INITIALIZE THREE Noah LSM RELATED TABLES
  LANDUSE TYPE = USGS FOUND 27  CATEGORIES
  INPUT SOIL TEXTURE CLASSIFICATION = STAS
  SOIL TEXTURE CLASSIFICATION = STAS FOUND 19  CATEGORIES
 *********************************************************************
 *             PROGRAM:WRF/CHEM V3.6 MODEL
 *                                                                   *
 *    PLEASE REPORT ANY BUGS TO WRF/CHEM HELP at                     *
 *                                                                   *
 *              wrfchemhelp.gsd@noaa.gov                             *
 *                                                                   *
 *********************************************************************
 WARNING: dust option 1 currently works only with the GOCART aerosol option.
 WARNING: sea salt option 1 currently works only with the GOCART aerosol option.
  *************************************
  Nesting domain
  ids,ide,jds,jde  1 217 1 388
  ims,ime,jms,jme  -4 33 -4 36
  ips,ipe,jps,jpe  1 22 1 25
  INTERMEDIATE domain
  ids,ide,jds,jde  225 302 83 217
  ims,ime,jms,jme  220 243 78 102
  ips,ipe,jps,jpe  223 233 81 92
  *************************************
 d02 2016-02-05_12:00:00  alloc_space_field: domain  4 ,  154732412  bytes allocated
 d02 2016-02-05_12:00:00  alloc_space_field: domain  4 ,  7557600  bytes allocated
 d02 2016-02-05_12:00:00 *** Initializing nest domain # 4 from an input file. ***
 d02 2016-02-05_12:00:00 med_initialdata_input: calling input_input
Timing for processing wrfinput file (stream 0) for domain        4:    6.73713 elapsed seconds
 INPUT LandUse = "USGS"
  LANDUSE TYPE = "USGS" FOUND 33  CATEGORIES 2  SEASONS WATER CATEGORY =  16  SNOW CATEGORY =  24
 INITIALIZE THREE Noah LSM RELATED TABLES
  LANDUSE TYPE = USGS FOUND 27  CATEGORIES
  INPUT SOIL TEXTURE CLASSIFICATION = STAS
  SOIL TEXTURE CLASSIFICATION = STAS FOUND 19  CATEGORIES
 *********************************************************************
 *             PROGRAM:WRF/CHEM V3.6 MODEL
 *                                                                   *
 *    PLEASE REPORT ANY BUGS TO WRF/CHEM HELP at                     *
 *                                                                   *
 *              wrfchemhelp.gsd@noaa.gov                             *
 *                                                                   *
 *********************************************************************
 WARNING: dust option 1 currently works only with the GOCART aerosol option.
 WARNING: sea salt option 1 currently works only with the GOCART aerosol option.
 INPUT LandUse = "USGS"
  LANDUSE TYPE = "USGS" FOUND 33  CATEGORIES 2  SEASONS WATER CATEGORY =  16  SNOW CATEGORY =  24
 INITIALIZE THREE Noah LSM RELATED TABLES
  LANDUSE TYPE = USGS FOUND 27  CATEGORIES
  INPUT SOIL TEXTURE CLASSIFICATION = STAS
  SOIL TEXTURE CLASSIFICATION = STAS FOUND 19  CATEGORIES
 *********************************************************************
 *             PROGRAM:WRF/CHEM V3.6 MODEL
 *                                                                   *
 *    PLEASE REPORT ANY BUGS TO WRF/CHEM HELP at                     *
 *                                                                   *
 *              wrfchemhelp.gsd@noaa.gov                             *
 *                                                                   *
 *********************************************************************
 WARNING: dust option 1 currently works only with the GOCART aerosol option.
 WARNING: sea salt option 1 currently works only with the GOCART aerosol option.
 INPUT LandUse = "USGS"
  LANDUSE TYPE = "USGS" FOUND 33  CATEGORIES 2  SEASONS WATER CATEGORY =  16  SNOW CATEGORY =  24
 INITIALIZE THREE Noah LSM RELATED TABLES
  LANDUSE TYPE = USGS FOUND 27  CATEGORIES
  INPUT SOIL TEXTURE CLASSIFICATION = STAS
  SOIL TEXTURE CLASSIFICATION = STAS FOUND 19  CATEGORIES
 *********************************************************************
 *             PROGRAM:WRF/CHEM V3.6 MODEL
 *                                                                   *
 *    PLEASE REPORT ANY BUGS TO WRF/CHEM HELP at                     *
 *                                                                   *
 *              wrfchemhelp.gsd@noaa.gov                             *
 *                                                                   *
 *********************************************************************
 WARNING: dust option 1 currently works only with the GOCART aerosol option.
 WARNING: sea salt option 1 currently works only with the GOCART aerosol option.
Timing for Writing wrfout_d02_2016-02-05_12:00:00 for domain        2:    2.02764 elapsed seconds
  mediation_integrate: med_read_wrf_chem_emissions: Open file wrfchemi_12z_d02
  HOURLY EMISSIONS UPDATE TIME         .0        .0
 mediation_integrate: med_read_wrf_chem_emissions: Read emissions for time 2016-02-05_12:00:00
 **WARNING** Time in input file not being checked **WARNING**
  Tile Strategy is not specified. Assuming 1D-Y
 WRF TILE   1 IS      1 IE     36 JS      1 JE     16
 WRF NUMBER OF TILES =   1
  photolysis_driver: called for domain  2
Timing for Writing wrfout_d03_2016-02-05_12:00:00 for domain        3:    1.71163 elapsed seconds
  mediation_integrate: med_read_wrf_chem_emissions: Open file wrfchemi_12z_d03
  HOURLY EMISSIONS UPDATE TIME         .0        .0
 mediation_integrate: med_read_wrf_chem_emissions: Read emissions for time 2016-02-05_12:00:00
 **WARNING** Time in input file not being checked **WARNING**
  Tile Strategy is not specified. Assuming 1D-Y
 WRF TILE   1 IS      1 IE     31 JS      1 JE     15
 WRF NUMBER OF TILES =   1
  photolysis_driver: called for domain  3
Timing for main: time 2016-02-05_12:00:13 on domain   3:    4.92901 elapsed seconds
Timing for main: time 2016-02-05_12:00:26 on domain   3:     .24760 elapsed seconds
Timing for main: time 2016-02-05_12:00:40 on domain   3:     .19443 elapsed seconds
Timing for Writing wrfout_d04_2016-02-05_12:00:00 for domain        4:    1.91253 elapsed seconds
  mediation_integrate: med_read_wrf_chem_emissions: Open file wrfchemi_12z_d04
  HOURLY EMISSIONS UPDATE TIME         .0        .0
 mediation_integrate: med_read_wrf_chem_emissions: Read emissions for time 2016-02-05_12:00:00
 **WARNING** Time in input file not being checked **WARNING**
  Tile Strategy is not specified. Assuming 1D-Y
 WRF TILE   1 IS      1 IE     22 JS      1 JE     25
 WRF NUMBER OF TILES =   1
  photolysis_driver: called for domain  4
Timing for main: time 2016-02-05_12:00:20 on domain   4:    5.41906 elapsed seconds
Timing for main: time 2016-02-05_12:00:40 on domain   4:     .24846 elapsed seconds
Timing for main: time 2016-02-05_12:00:40 on domain   2:   32.17677 elapsed seconds
Timing for main: time 2016-02-05_12:00:53 on domain   3:     .19548 elapsed seconds
Timing for main: time 2016-02-05_12:01:06 on domain   3:     .19028 elapsed seconds
Timing for main: time 2016-02-05_12:01:20 on domain   3:     .18333 elapsed seconds
Timing for main: time 2016-02-05_12:01:00 on domain   4:     .22154 elapsed seconds
Timing for main: time 2016-02-05_12:01:20 on domain   4:     .22309 elapsed seconds
Timing for main: time 2016-02-05_12:01:20 on domain   2:    1.67521 elapsed seconds
Timing for main: time 2016-02-05_12:01:33 on domain   3:     .19194 elapsed seconds
Timing for main: time 2016-02-05_12:01:46 on domain   3:     .17863 elapsed seconds
Timing for main: time 2016-02-05_12:02:00 on domain   3:     .18026 elapsed seconds
Timing for main: time 2016-02-05_12:01:40 on domain   4:     .21609 elapsed seconds
Timing for main: time 2016-02-05_12:02:00 on domain   4:     .21177 elapsed seconds
Timing for main: time 2016-02-05_12:02:00 on domain   2:    1.69344 elapsed seconds
Timing for main: time 2016-02-05_12:02:00 on domain   1:   51.63884 elapsed seconds
Timing for main: time 2016-02-05_12:02:13 on domain   3:     .19270 elapsed seconds
Timing for main: time 2016-02-05_12:02:26 on domain   3:     .18006 elapsed seconds
Timing for main: time 2016-02-05_12:02:40 on domain   3:     .17935 elapsed seconds
Timing for main: time 2016-02-05_12:02:20 on domain   4:     .21741 elapsed seconds
Timing for main: time 2016-02-05_12:02:40 on domain   4:     .21373 elapsed seconds
Timing for main: time 2016-02-05_12:02:40 on domain   2:    1.67118 elapsed seconds
Timing for main: time 2016-02-05_12:02:53 on domain   3:     .19305 elapsed seconds
Timing for main: time 2016-02-05_12:03:06 on domain   3:     .17911 elapsed seconds
Timing for main: time 2016-02-05_12:03:20 on domain   3:     .18217 elapsed seconds
Timing for main: time 2016-02-05_12:03:00 on domain   4:     .21565 elapsed seconds
Timing for main: time 2016-02-05_12:03:20 on domain   4:     .21343 elapsed seconds
Timing for main: time 2016-02-05_12:03:20 on domain   2:    1.66377 elapsed seconds
Timing for main: time 2016-02-05_12:03:33 on domain   3:     .19278 elapsed seconds
Timing for main: time 2016-02-05_12:03:46 on domain   3:     .17977 elapsed seconds
Timing for main: time 2016-02-05_12:04:00 on domain   3:     .17998 elapsed seconds
Timing for main: time 2016-02-05_12:03:40 on domain   4:     .21646 elapsed seconds
Timing for main: time 2016-02-05_12:04:00 on domain   4:     .21224 elapsed seconds
Timing for main: time 2016-02-05_12:04:00 on domain   2:    1.66128 elapsed seconds
Timing for main: time 2016-02-05_12:04:00 on domain   1:    5.33081 elapsed seconds
Timing for main: time 2016-02-05_12:04:13 on domain   3:     .19377 elapsed seconds
Timing for main: time 2016-02-05_12:04:26 on domain   3:     .17878 elapsed seconds
Timing for main: time 2016-02-05_12:04:40 on domain   3:     .17936 elapsed seconds
Timing for main: time 2016-02-05_12:04:20 on domain   4:     .21644 elapsed seconds
Timing for main: time 2016-02-05_12:04:40 on domain   4:     .21216 elapsed seconds
Timing for main: time 2016-02-05_12:04:40 on domain   2:    1.66853 elapsed seconds
Timing for main: time 2016-02-05_12:04:53 on domain   3:     .19351 elapsed seconds
Timing for main: time 2016-02-05_12:05:06 on domain   3:     .18781 elapsed seconds
Timing for main: time 2016-02-05_12:05:20 on domain   3:     .18233 elapsed seconds
Timing for main: time 2016-02-05_12:05:00 on domain   4:     .22592 elapsed seconds
Timing for main: time 2016-02-05_12:05:20 on domain   4:     .26101 elapsed seconds
Timing for main: time 2016-02-05_12:05:20 on domain   2:    1.74140 elapsed seconds
Timing for main: time 2016-02-05_12:05:33 on domain   3:     .19493 elapsed seconds
Timing for main: time 2016-02-05_12:05:46 on domain   3:     .17904 elapsed seconds
Timing for main: time 2016-02-05_12:06:00 on domain   3:     .17945 elapsed seconds
Timing for main: time 2016-02-05_12:05:40 on domain   4:     .21713 elapsed seconds
Timing for main: time 2016-02-05_12:06:00 on domain   4:     .21336 elapsed seconds
Timing for main: time 2016-02-05_12:06:00 on domain   2:    1.69423 elapsed seconds
Timing for main: time 2016-02-05_12:06:00 on domain   1:    5.47022 elapsed seconds
Timing for main: time 2016-02-05_12:06:13 on domain   3:     .19437 elapsed seconds
Timing for main: time 2016-02-05_12:06:26 on domain   3:     .17942 elapsed seconds
Timing for main: time 2016-02-05_12:06:40 on domain   3:     .17934 elapsed seconds
Timing for main: time 2016-02-05_12:06:20 on domain   4:     .21670 elapsed seconds
Timing for main: time 2016-02-05_12:06:40 on domain   4:     .21259 elapsed seconds
Timing for main: time 2016-02-05_12:06:40 on domain   2:    1.67155 elapsed seconds
Timing for main: time 2016-02-05_12:06:53 on domain   3:     .19332 elapsed seconds
Timing for main: time 2016-02-05_12:07:06 on domain   3:     .17905 elapsed seconds
Timing for main: time 2016-02-05_12:07:20 on domain   3:     .17931 elapsed seconds
Timing for main: time 2016-02-05_12:07:00 on domain   4:     .21713 elapsed seconds
Timing for main: time 2016-02-05_12:07:20 on domain   4:     .21287 elapsed seconds
Timing for main: time 2016-02-05_12:07:20 on domain   2:    1.67627 elapsed seconds
Timing for main: time 2016-02-05_12:07:33 on domain   3:     .19351 elapsed seconds
Timing for main: time 2016-02-05_12:07:46 on domain   3:     .17963 elapsed seconds
Timing for main: time 2016-02-05_12:08:00 on domain   3:     .17902 elapsed seconds
Timing for main: time 2016-02-05_12:07:40 on domain   4:     .21684 elapsed seconds
Timing for main: time 2016-02-05_12:08:00 on domain   4:     .21326 elapsed seconds
Timing for main: time 2016-02-05_12:08:00 on domain   2:    1.66358 elapsed seconds
Timing for main: time 2016-02-05_12:08:00 on domain   1:    5.36976 elapsed seconds
Timing for main: time 2016-02-05_12:08:13 on domain   3:     .19397 elapsed seconds
Timing for main: time 2016-02-05_12:08:26 on domain   3:     .18036 elapsed seconds
Timing for main: time 2016-02-05_12:08:40 on domain   3:     .17898 elapsed seconds
Timing for main: time 2016-02-05_12:08:20 on domain   4:     .21758 elapsed seconds
Timing for main: time 2016-02-05_12:08:40 on domain   4:     .21281 elapsed seconds
Timing for main: time 2016-02-05_12:08:40 on domain   2:    1.67156 elapsed seconds
Timing for main: time 2016-02-05_12:08:53 on domain   3:     .19362 elapsed seconds
Timing for main: time 2016-02-05_12:09:06 on domain   3:     .17882 elapsed seconds
Timing for main: time 2016-02-05_12:09:20 on domain   3:     .17966 elapsed seconds
Timing for main: time 2016-02-05_12:09:00 on domain   4:     .21666 elapsed seconds
Timing for main: time 2016-02-05_12:09:20 on domain   4:     .21309 elapsed seconds
Timing for main: time 2016-02-05_12:09:20 on domain   2:    1.66327 elapsed seconds
Timing for main: time 2016-02-05_12:09:33 on domain   3:     .19313 elapsed seconds
Timing for main: time 2016-02-05_12:09:46 on domain   3:     .18261 elapsed seconds
Timing for main: time 2016-02-05_12:10:00 on domain   3:     .17915 elapsed seconds
Timing for main: time 2016-02-05_12:09:40 on domain   4:     .21957 elapsed seconds
Timing for main: time 2016-02-05_12:10:00 on domain   4:     .22354 elapsed seconds
Timing for main: time 2016-02-05_12:10:00 on domain   2:    1.67872 elapsed seconds
Timing for main: time 2016-02-05_12:10:00 on domain   1:    5.37253 elapsed seconds
Timing for main: time 2016-02-05_12:10:13 on domain   3:     .20199 elapsed seconds
Timing for main: time 2016-02-05_12:10:26 on domain   3:     .17936 elapsed seconds
Timing for main: time 2016-02-05_12:10:40 on domain   3:     .17967 elapsed seconds
Timing for main: time 2016-02-05_12:10:20 on domain   4:     .21715 elapsed seconds
Timing for main: time 2016-02-05_12:10:40 on domain   4:     .21282 elapsed seconds
Timing for main: time 2016-02-05_12:10:40 on domain   2:    1.68936 elapsed seconds
Timing for main: time 2016-02-05_12:10:53 on domain   3:     .19489 elapsed seconds
Timing for main: time 2016-02-05_12:11:06 on domain   3:     .17967 elapsed seconds
Timing for main: time 2016-02-05_12:11:20 on domain   3:     .18027 elapsed seconds
Timing for main: time 2016-02-05_12:11:00 on domain   4:     .22984 elapsed seconds
Timing for main: time 2016-02-05_12:11:20 on domain   4:     .21194 elapsed seconds
Timing for main: time 2016-02-05_12:11:20 on domain   2:    1.67749 elapsed seconds
Timing for main: time 2016-02-05_12:11:33 on domain   3:     .19366 elapsed seconds
Timing for main: time 2016-02-05_12:11:46 on domain   3:     .17905 elapsed seconds
Timing for main: time 2016-02-05_12:12:00 on domain   3:     .18225 elapsed seconds
Timing for main: time 2016-02-05_12:11:40 on domain   4:     .21713 elapsed seconds
Timing for main: time 2016-02-05_12:12:00 on domain   4:     .21336 elapsed seconds
Timing for main: time 2016-02-05_12:12:00 on domain   2:    1.66930 elapsed seconds
Timing for main: time 2016-02-05_12:12:00 on domain   1:    5.40194 elapsed seconds
Timing for main: time 2016-02-05_12:12:13 on domain   3:     .19328 elapsed seconds
Timing for main: time 2016-02-05_12:12:26 on domain   3:     .17938 elapsed seconds
Timing for main: time 2016-02-05_12:12:40 on domain   3:     .18124 elapsed seconds
Timing for main: time 2016-02-05_12:12:20 on domain   4:     .21700 elapsed seconds
Timing for main: time 2016-02-05_12:12:40 on domain   4:     .21321 elapsed seconds
Timing for main: time 2016-02-05_12:12:40 on domain   2:    1.67239 elapsed seconds
Timing for main: time 2016-02-05_12:12:53 on domain   3:     .19285 elapsed seconds
Timing for main: time 2016-02-05_12:13:06 on domain   3:     .17977 elapsed seconds
Timing for main: time 2016-02-05_12:13:20 on domain   3:     .17891 elapsed seconds
Timing for main: time 2016-02-05_12:13:00 on domain   4:     .21743 elapsed seconds
Timing for main: time 2016-02-05_12:13:20 on domain   4:     .21397 elapsed seconds
Timing for main: time 2016-02-05_12:13:20 on domain   2:    1.66988 elapsed seconds
Timing for main: time 2016-02-05_12:13:33 on domain   3:     .19405 elapsed seconds
Timing for main: time 2016-02-05_12:13:46 on domain   3:     .18024 elapsed seconds
Timing for main: time 2016-02-05_12:14:00 on domain   3:     .18004 elapsed seconds
Timing for main: time 2016-02-05_12:13:40 on domain   4:     .21736 elapsed seconds
Timing for main: time 2016-02-05_12:14:00 on domain   4:     .21354 elapsed seconds
Timing for main: time 2016-02-05_12:14:00 on domain   2:    1.66681 elapsed seconds
Timing for main: time 2016-02-05_12:14:00 on domain   1:    5.36891 elapsed seconds
Timing for main: time 2016-02-05_12:14:13 on domain   3:     .19452 elapsed seconds
Timing for main: time 2016-02-05_12:14:26 on domain   3:     .18367 elapsed seconds
Timing for main: time 2016-02-05_12:14:40 on domain   3:     .18068 elapsed seconds
Timing for main: time 2016-02-05_12:14:20 on domain   4:     .21718 elapsed seconds
Timing for main: time 2016-02-05_12:14:40 on domain   4:     .21379 elapsed seconds
Timing for main: time 2016-02-05_12:14:40 on domain   2:    1.67893 elapsed seconds
Timing for main: time 2016-02-05_12:14:53 on domain   3:     .19291 elapsed seconds
Timing for main: time 2016-02-05_12:15:06 on domain   3:     .17952 elapsed seconds
Timing for main: time 2016-02-05_12:15:20 on domain   3:     .18894 elapsed seconds
Timing for main: time 2016-02-05_12:15:00 on domain   4:     .22678 elapsed seconds
Timing for main: time 2016-02-05_12:15:20 on domain   4:     .21340 elapsed seconds
Timing for main: time 2016-02-05_12:15:20 on domain   2:    1.68518 elapsed seconds
Timing for main: time 2016-02-05_12:15:33 on domain   3:     .19293 elapsed seconds
Timing for main: time 2016-02-05_12:15:46 on domain   3:     .17933 elapsed seconds
Timing for main: time 2016-02-05_12:16:00 on domain   3:     .17985 elapsed seconds
Timing for main: time 2016-02-05_12:15:40 on domain   4:     .21800 elapsed seconds
Timing for main: time 2016-02-05_12:16:00 on domain   4:     .21388 elapsed seconds
Timing for main: time 2016-02-05_12:16:00 on domain   2:    1.67714 elapsed seconds
Timing for main: time 2016-02-05_12:16:00 on domain   1:    5.40213 elapsed seconds
Timing for main: time 2016-02-05_12:16:13 on domain   3:     .19309 elapsed seconds
Timing for main: time 2016-02-05_12:16:26 on domain   3:     .17932 elapsed seconds
Timing for main: time 2016-02-05_12:16:40 on domain   3:     .17943 elapsed seconds
Timing for main: time 2016-02-05_12:16:20 on domain   4:     .21718 elapsed seconds
Timing for main: time 2016-02-05_12:16:40 on domain   4:     .21405 elapsed seconds
Timing for main: time 2016-02-05_12:16:40 on domain   2:    1.67297 elapsed seconds
Timing for main: time 2016-02-05_12:16:53 on domain   3:     .19315 elapsed seconds
Timing for main: time 2016-02-05_12:17:06 on domain   3:     .17963 elapsed seconds
Timing for main: time 2016-02-05_12:17:20 on domain   3:     .18081 elapsed seconds
Timing for main: time 2016-02-05_12:17:00 on domain   4:     .21743 elapsed seconds
Timing for main: time 2016-02-05_12:17:20 on domain   4:     .21483 elapsed seconds
Timing for main: time 2016-02-05_12:17:20 on domain   2:    1.66816 elapsed seconds
Timing for main: time 2016-02-05_12:17:33 on domain   3:     .19259 elapsed seconds
Timing for main: time 2016-02-05_12:17:46 on domain   3:     .17930 elapsed seconds
Timing for main: time 2016-02-05_12:18:00 on domain   3:     .18430 elapsed seconds
Timing for main: time 2016-02-05_12:17:40 on domain   4:     .21708 elapsed seconds
Timing for main: time 2016-02-05_12:18:00 on domain   4:     .21314 elapsed seconds
Timing for main: time 2016-02-05_12:18:00 on domain   2:    1.66869 elapsed seconds
Timing for main: time 2016-02-05_12:18:00 on domain   1:    5.37658 elapsed seconds
Timing for main: time 2016-02-05_12:18:13 on domain   3:     .19342 elapsed seconds
Timing for main: time 2016-02-05_12:18:26 on domain   3:     .17914 elapsed seconds
Timing for main: time 2016-02-05_12:18:40 on domain   3:     .18089 elapsed seconds
Timing for main: time 2016-02-05_12:18:20 on domain   4:     .21659 elapsed seconds
Timing for main: time 2016-02-05_12:18:40 on domain   4:     .21420 elapsed seconds
Timing for main: time 2016-02-05_12:18:40 on domain   2:    1.67163 elapsed seconds
Timing for main: time 2016-02-05_12:18:53 on domain   3:     .19313 elapsed seconds
Timing for main: time 2016-02-05_12:19:06 on domain   3:     .17935 elapsed seconds
Timing for main: time 2016-02-05_12:19:20 on domain   3:     .17924 elapsed seconds
Timing for main: time 2016-02-05_12:19:00 on domain   4:     .21676 elapsed seconds
Timing for main: time 2016-02-05_12:19:20 on domain   4:     .21339 elapsed seconds
Timing for main: time 2016-02-05_12:19:20 on domain   2:    1.66610 elapsed seconds
Timing for main: time 2016-02-05_12:19:33 on domain   3:     .19469 elapsed seconds
Timing for main: time 2016-02-05_12:19:46 on domain   3:     .17842 elapsed seconds
Timing for main: time 2016-02-05_12:20:00 on domain   3:     .18006 elapsed seconds
Timing for main: time 2016-02-05_12:19:40 on domain   4:     .21711 elapsed seconds
Timing for main: time 2016-02-05_12:20:00 on domain   4:     .22297 elapsed seconds
Timing for main: time 2016-02-05_12:20:00 on domain   2:    1.67534 elapsed seconds
Timing for main: time 2016-02-05_12:20:00 on domain   1:    5.37232 elapsed seconds
Timing for main: time 2016-02-05_12:20:13 on domain   3:     .19692 elapsed seconds
Timing for main: time 2016-02-05_12:20:26 on domain   3:     .18568 elapsed seconds
Timing for main: time 2016-02-05_12:20:40 on domain   3:     .17892 elapsed seconds
Timing for main: time 2016-02-05_12:20:20 on domain   4:     .21776 elapsed seconds
Timing for main: time 2016-02-05_12:20:40 on domain   4:     .21315 elapsed seconds
Timing for main: time 2016-02-05_12:20:40 on domain   2:    1.71451 elapsed seconds
Timing for main: time 2016-02-05_12:20:53 on domain   3:     .19753 elapsed seconds
Timing for main: time 2016-02-05_12:21:06 on domain   3:     .18292 elapsed seconds
Timing for main: time 2016-02-05_12:21:20 on domain   3:     .18047 elapsed seconds
Timing for main: time 2016-02-05_12:21:00 on domain   4:     .21720 elapsed seconds
Timing for main: time 2016-02-05_12:21:20 on domain   4:     .21347 elapsed seconds
Timing for main: time 2016-02-05_12:21:20 on domain   2:    1.68628 elapsed seconds
Timing for main: time 2016-02-05_12:21:33 on domain   3:     .19245 elapsed seconds
Timing for main: time 2016-02-05_12:21:46 on domain   3:     .17945 elapsed seconds
Timing for main: time 2016-02-05_12:22:00 on domain   3:     .17966 elapsed seconds
Timing for main: time 2016-02-05_12:21:40 on domain   4:     .21627 elapsed seconds
Timing for main: time 2016-02-05_12:22:00 on domain   4:     .21318 elapsed seconds
Timing for main: time 2016-02-05_12:22:00 on domain   2:    1.66426 elapsed seconds
Timing for main: time 2016-02-05_12:22:00 on domain   1:    5.42608 elapsed seconds
Timing for main: time 2016-02-05_12:22:13 on domain   3:     .19287 elapsed seconds
Timing for main: time 2016-02-05_12:22:26 on domain   3:     .18991 elapsed seconds
Timing for main: time 2016-02-05_12:22:40 on domain   3:     .17830 elapsed seconds
Timing for main: time 2016-02-05_12:22:20 on domain   4:     .21832 elapsed seconds
Timing for main: time 2016-02-05_12:22:40 on domain   4:     .21374 elapsed seconds
Timing for main: time 2016-02-05_12:22:40 on domain   2:    1.68138 elapsed seconds
Timing for main: time 2016-02-05_12:22:53 on domain   3:     .19301 elapsed seconds
Timing for main: time 2016-02-05_12:23:06 on domain   3:     .17879 elapsed seconds
Timing for main: time 2016-02-05_12:23:20 on domain   3:     .18019 elapsed seconds
Timing for main: time 2016-02-05_12:23:00 on domain   4:     .21763 elapsed seconds
Timing for main: time 2016-02-05_12:23:20 on domain   4:     .21352 elapsed seconds
Timing for main: time 2016-02-05_12:23:20 on domain   2:    1.66514 elapsed seconds
Timing for main: time 2016-02-05_12:23:33 on domain   3:     .19344 elapsed seconds
Timing for main: time 2016-02-05_12:23:46 on domain   3:     .18570 elapsed seconds
Timing for main: time 2016-02-05_12:24:00 on domain   3:     .17865 elapsed seconds
Timing for main: time 2016-02-05_12:23:40 on domain   4:     .21704 elapsed seconds
Timing for main: time 2016-02-05_12:24:00 on domain   4:     .21628 elapsed seconds
Timing for main: time 2016-02-05_12:24:00 on domain   2:    1.67319 elapsed seconds
Timing for main: time 2016-02-05_12:24:00 on domain   1:    5.38580 elapsed seconds
Timing for main: time 2016-02-05_12:24:13 on domain   3:     .19264 elapsed seconds
Timing for main: time 2016-02-05_12:24:26 on domain   3:     .17916 elapsed seconds
Timing for main: time 2016-02-05_12:24:40 on domain   3:     .18425 elapsed seconds
Timing for main: time 2016-02-05_12:24:20 on domain   4:     .21734 elapsed seconds
Timing for main: time 2016-02-05_12:24:40 on domain   4:     .21442 elapsed seconds
Timing for main: time 2016-02-05_12:24:40 on domain   2:    1.67572 elapsed seconds
Timing for main: time 2016-02-05_12:24:53 on domain   3:     .19392 elapsed seconds
Timing for main: time 2016-02-05_12:25:06 on domain   3:     .17910 elapsed seconds
Timing for main: time 2016-02-05_12:25:20 on domain   3:     .19477 elapsed seconds
Timing for main: time 2016-02-05_12:25:00 on domain   4:     .22646 elapsed seconds
Timing for main: time 2016-02-05_12:25:20 on domain   4:     .21465 elapsed seconds
Timing for main: time 2016-02-05_12:25:20 on domain   2:    1.78324 elapsed seconds
Timing for main: time 2016-02-05_12:25:33 on domain   3:     .20058 elapsed seconds
Timing for main: time 2016-02-05_12:25:46 on domain   3:     .17958 elapsed seconds
Timing for main: time 2016-02-05_12:26:00 on domain   3:     .17973 elapsed seconds
Timing for main: time 2016-02-05_12:25:40 on domain   4:     .21726 elapsed seconds
Timing for main: time 2016-02-05_12:26:00 on domain   4:     .21361 elapsed seconds
Timing for main: time 2016-02-05_12:26:00 on domain   2:    1.67328 elapsed seconds
Timing for main: time 2016-02-05_12:26:00 on domain   1:    5.49131 elapsed seconds
Timing for main: time 2016-02-05_12:26:13 on domain   3:     .19298 elapsed seconds
Timing for main: time 2016-02-05_12:26:26 on domain   3:     .17913 elapsed seconds
Timing for main: time 2016-02-05_12:26:40 on domain   3:     .17903 elapsed seconds
Timing for main: time 2016-02-05_12:26:20 on domain   4:     .21768 elapsed seconds
Timing for main: time 2016-02-05_12:26:40 on domain   4:     .21378 elapsed seconds
Timing for main: time 2016-02-05_12:26:40 on domain   2:    1.68277 elapsed seconds
Timing for main: time 2016-02-05_12:26:53 on domain   3:     .19447 elapsed seconds
Timing for main: time 2016-02-05_12:27:06 on domain   3:     .20390 elapsed seconds
Timing for main: time 2016-02-05_12:27:20 on domain   3:     .24621 elapsed seconds
Timing for main: time 2016-02-05_12:27:00 on domain   4:     .22020 elapsed seconds
Timing for main: time 2016-02-05_12:27:20 on domain   4:     .21375 elapsed seconds
Timing for main: time 2016-02-05_12:27:20 on domain   2:    1.75997 elapsed seconds
Timing for main: time 2016-02-05_12:27:33 on domain   3:     .19300 elapsed seconds
Timing for main: time 2016-02-05_12:27:46 on domain   3:     .18100 elapsed seconds
Timing for main: time 2016-02-05_12:28:00 on domain   3:     .17898 elapsed seconds
Timing for main: time 2016-02-05_12:27:40 on domain   4:     .21700 elapsed seconds
Timing for main: time 2016-02-05_12:28:00 on domain   4:     .21436 elapsed seconds
Timing for main: time 2016-02-05_12:28:00 on domain   2:    1.66678 elapsed seconds
Timing for main: time 2016-02-05_12:28:00 on domain   1:    5.46933 elapsed seconds
  photolysis_driver: called for domain  1
Timing for main: time 2016-02-05_12:28:13 on domain   3:     .19411 elapsed seconds
Timing for main: time 2016-02-05_12:28:26 on domain   3:     .17838 elapsed seconds
Timing for main: time 2016-02-05_12:28:40 on domain   3:     .17931 elapsed seconds
Timing for main: time 2016-02-05_12:28:20 on domain   4:     .21736 elapsed seconds
Timing for main: time 2016-02-05_12:28:40 on domain   4:     .21378 elapsed seconds
Timing for main: time 2016-02-05_12:28:40 on domain   2:    1.67234 elapsed seconds
Timing for main: time 2016-02-05_12:28:53 on domain   3:     .19129 elapsed seconds
Timing for main: time 2016-02-05_12:29:06 on domain   3:     .17943 elapsed seconds
Timing for main: time 2016-02-05_12:29:20 on domain   3:     .17964 elapsed seconds
Timing for main: time 2016-02-05_12:29:00 on domain   4:     .21697 elapsed seconds
Timing for main: time 2016-02-05_12:29:20 on domain   4:     .21368 elapsed seconds
Timing for main: time 2016-02-05_12:29:20 on domain   2:    1.66718 elapsed seconds
  photolysis_driver: called for domain  2
Timing for main: time 2016-02-05_12:29:33 on domain   3:     .19244 elapsed seconds
Timing for main: time 2016-02-05_12:29:46 on domain   3:     .18098 elapsed seconds
  photolysis_driver: called for domain  3
Timing for main: time 2016-02-05_12:30:00 on domain   3:    1.04317 elapsed seconds
Timing for main: time 2016-02-05_12:29:40 on domain   4:     .21737 elapsed seconds
  photolysis_driver: called for domain  4
Timing for main: time 2016-02-05_12:30:00 on domain   4:    1.23746 elapsed seconds
Timing for main: time 2016-02-05_12:30:00 on domain   2:    4.64389 elapsed seconds
Timing for main: time 2016-02-05_12:30:00 on domain   1:    9.03102 elapsed seconds
Timing for main: time 2016-02-05_12:30:13 on domain   3:     .36325 elapsed seconds
Timing for main: time 2016-02-05_12:30:26 on domain   3:     .17807 elapsed seconds
Timing for main: time 2016-02-05_12:30:40 on domain   3:     .19034 elapsed seconds
Timing for main: time 2016-02-05_12:30:20 on domain   4:     .42297 elapsed seconds
Timing for main: time 2016-02-05_12:30:40 on domain   4:     .21332 elapsed seconds
Timing for main: time 2016-02-05_12:30:40 on domain   2:    2.27087 elapsed seconds
Timing for main: time 2016-02-05_12:30:53 on domain   3:     .19131 elapsed seconds
Timing for main: time 2016-02-05_12:31:06 on domain   3:     .17810 elapsed seconds
Timing for main: time 2016-02-05_12:31:20 on domain   3:     .17839 elapsed seconds
Timing for main: time 2016-02-05_12:31:00 on domain   4:     .21556 elapsed seconds
Timing for main: time 2016-02-05_12:31:20 on domain   4:     .21312 elapsed seconds
Timing for main: time 2016-02-05_12:31:20 on domain   2:    1.65852 elapsed seconds
Timing for main: time 2016-02-05_12:31:33 on domain   3:     .19101 elapsed seconds
Timing for main: time 2016-02-05_12:31:46 on domain   3:     .17760 elapsed seconds
Timing for main: time 2016-02-05_12:32:00 on domain   3:     .17915 elapsed seconds
Timing for main: time 2016-02-05_12:31:40 on domain   4:     .21982 elapsed seconds
Timing for main: time 2016-02-05_12:32:00 on domain   4:     .21285 elapsed seconds
Timing for main: time 2016-02-05_12:32:00 on domain   2:    1.67263 elapsed seconds
Timing for main: time 2016-02-05_12:32:00 on domain   1:    6.12465 elapsed seconds
Timing for main: time 2016-02-05_12:32:13 on domain   3:     .19218 elapsed seconds
Timing for main: time 2016-02-05_12:32:26 on domain   3:     .17777 elapsed seconds
Timing for main: time 2016-02-05_12:32:40 on domain   3:     .17891 elapsed seconds
Timing for main: time 2016-02-05_12:32:20 on domain   4:     .21607 elapsed seconds
Timing for main: time 2016-02-05_12:32:40 on domain   4:     .21484 elapsed seconds
Timing for main: time 2016-02-05_12:32:40 on domain   2:    1.66704 elapsed seconds
Timing for main: time 2016-02-05_12:32:53 on domain   3:     .19267 elapsed seconds
Timing for main: time 2016-02-05_12:33:06 on domain   3:     .17902 elapsed seconds
Timing for main: time 2016-02-05_12:33:20 on domain   3:     .18459 elapsed seconds
Timing for main: time 2016-02-05_12:33:00 on domain   4:     .21580 elapsed seconds
Timing for main: time 2016-02-05_12:33:20 on domain   4:     .21236 elapsed seconds
Timing for main: time 2016-02-05_12:33:20 on domain   2:    1.66492 elapsed seconds
Timing for main: time 2016-02-05_12:33:33 on domain   3:     .19155 elapsed seconds
Timing for main: time 2016-02-05_12:33:46 on domain   3:     .17765 elapsed seconds
Timing for main: time 2016-02-05_12:34:00 on domain   3:     .17843 elapsed seconds
Timing for main: time 2016-02-05_12:33:40 on domain   4:     .21551 elapsed seconds
Timing for main: time 2016-02-05_12:34:00 on domain   4:     .21450 elapsed seconds
Timing for main: time 2016-02-05_12:34:00 on domain   2:    1.66170 elapsed seconds
Timing for main: time 2016-02-05_12:34:00 on domain   1:    5.35449 elapsed seconds
Timing for main: time 2016-02-05_12:34:13 on domain   3:     .19177 elapsed seconds
Timing for main: time 2016-02-05_12:34:26 on domain   3:     .17798 elapsed seconds
Timing for main: time 2016-02-05_12:34:40 on domain   3:     .17932 elapsed seconds
Timing for main: time 2016-02-05_12:34:20 on domain   4:     .21543 elapsed seconds
Timing for main: time 2016-02-05_12:34:40 on domain   4:     .22282 elapsed seconds
Timing for main: time 2016-02-05_12:34:40 on domain   2:    1.67680 elapsed seconds
Timing for main: time 2016-02-05_12:34:53 on domain   3:     .19193 elapsed seconds
Timing for main: time 2016-02-05_12:35:06 on domain   3:     .18161 elapsed seconds
Timing for main: time 2016-02-05_12:35:20 on domain   3:     .17779 elapsed seconds
Timing for main: time 2016-02-05_12:35:00 on domain   4:     .22541 elapsed seconds
Timing for main: time 2016-02-05_12:35:20 on domain   4:     .21265 elapsed seconds
Timing for main: time 2016-02-05_12:35:20 on domain   2:    1.71809 elapsed seconds
Timing for main: time 2016-02-05_12:35:33 on domain   3:     .19158 elapsed seconds
Timing for main: time 2016-02-05_12:35:46 on domain   3:     .18935 elapsed seconds
Timing for main: time 2016-02-05_12:36:00 on domain   3:     .17906 elapsed seconds
Timing for main: time 2016-02-05_12:35:40 on domain   4:     .21572 elapsed seconds
Timing for main: time 2016-02-05_12:36:00 on domain   4:     .21290 elapsed seconds
Timing for main: time 2016-02-05_12:36:00 on domain   2:    1.67168 elapsed seconds
Timing for main: time 2016-02-05_12:36:00 on domain   1:    5.43202 elapsed seconds
Timing for main: time 2016-02-05_12:36:13 on domain   3:     .19247 elapsed seconds
Timing for main: time 2016-02-05_12:36:26 on domain   3:     .18235 elapsed seconds
Timing for main: time 2016-02-05_12:36:40 on domain   3:     .17636 elapsed seconds
Timing for main: time 2016-02-05_12:36:20 on domain   4:     .21535 elapsed seconds
Timing for main: time 2016-02-05_12:36:40 on domain   4:     .21274 elapsed seconds
Timing for main: time 2016-02-05_12:36:40 on domain   2:    1.66773 elapsed seconds
Timing for main: time 2016-02-05_12:36:53 on domain   3:     .19336 elapsed seconds
Timing for main: time 2016-02-05_12:37:06 on domain   3:     .17689 elapsed seconds
Timing for main: time 2016-02-05_12:37:20 on domain   3:     .17825 elapsed seconds
Timing for main: time 2016-02-05_12:37:00 on domain   4:     .21554 elapsed seconds
Timing for main: time 2016-02-05_12:37:20 on domain   4:     .21439 elapsed seconds
Timing for main: time 2016-02-05_12:37:20 on domain   2:    1.67134 elapsed seconds
Timing for main: time 2016-02-05_12:37:33 on domain   3:     .19157 elapsed seconds
Timing for main: time 2016-02-05_12:37:46 on domain   3:     .18193 elapsed seconds
Timing for main: time 2016-02-05_12:38:00 on domain   3:     .17789 elapsed seconds
Timing for main: time 2016-02-05_12:37:40 on domain   4:     .21565 elapsed seconds
Timing for main: time 2016-02-05_12:38:00 on domain   4:     .21290 elapsed seconds
Timing for main: time 2016-02-05_12:38:00 on domain   2:    1.66309 elapsed seconds
Timing for main: time 2016-02-05_12:38:00 on domain   1:    5.36256 elapsed seconds
Timing for main: time 2016-02-05_12:38:13 on domain   3:     .19142 elapsed seconds
Timing for main: time 2016-02-05_12:38:26 on domain   3:     .17834 elapsed seconds
Timing for main: time 2016-02-05_12:38:40 on domain   3:     .17873 elapsed seconds
Timing for main: time 2016-02-05_12:38:20 on domain   4:     .21656 elapsed seconds
Timing for main: time 2016-02-05_12:38:40 on domain   4:     .21336 elapsed seconds
Timing for main: time 2016-02-05_12:38:40 on domain   2:    1.66737 elapsed seconds
Timing for main: time 2016-02-05_12:38:53 on domain   3:     .19220 elapsed seconds
Timing for main: time 2016-02-05_12:39:06 on domain   3:     .17767 elapsed seconds
Timing for main: time 2016-02-05_12:39:20 on domain   3:     .17852 elapsed seconds
Timing for main: time 2016-02-05_12:39:00 on domain   4:     .21660 elapsed seconds
Timing for main: time 2016-02-05_12:39:20 on domain   4:     .21382 elapsed seconds
Timing for main: time 2016-02-05_12:39:20 on domain   2:    1.66212 elapsed seconds
Timing for main: time 2016-02-05_12:39:33 on domain   3:     .19186 elapsed seconds
Timing for main: time 2016-02-05_12:39:46 on domain   3:     .17795 elapsed seconds
Timing for main: time 2016-02-05_12:40:00 on domain   3:     .18000 elapsed seconds
Timing for main: time 2016-02-05_12:39:40 on domain   4:     .21564 elapsed seconds
Timing for main: time 2016-02-05_12:40:00 on domain   4:     .22208 elapsed seconds
Timing for main: time 2016-02-05_12:40:00 on domain   2:    1.67206 elapsed seconds
Timing for main: time 2016-02-05_12:40:00 on domain   1:    5.36187 elapsed seconds
Timing for main: time 2016-02-05_12:40:13 on domain   3:     .19143 elapsed seconds
Timing for main: time 2016-02-05_12:40:26 on domain   3:     .17883 elapsed seconds
Timing for main: time 2016-02-05_12:40:40 on domain   3:     .17851 elapsed seconds
Timing for main: time 2016-02-05_12:40:20 on domain   4:     .21579 elapsed seconds
Timing for main: time 2016-02-05_12:40:40 on domain   4:     .21296 elapsed seconds
Timing for main: time 2016-02-05_12:40:40 on domain   2:    1.66716 elapsed seconds
Timing for main: time 2016-02-05_12:40:53 on domain   3:     .19939 elapsed seconds
Timing for main: time 2016-02-05_12:41:06 on domain   3:     .19159 elapsed seconds
Timing for main: time 2016-02-05_12:41:20 on domain   3:     .17796 elapsed seconds
Timing for main: time 2016-02-05_12:41:00 on domain   4:     .21836 elapsed seconds
Timing for main: time 2016-02-05_12:41:20 on domain   4:     .21261 elapsed seconds
Timing for main: time 2016-02-05_12:41:20 on domain   2:    1.68361 elapsed seconds
Timing for main: time 2016-02-05_12:41:33 on domain   3:     .19588 elapsed seconds
Timing for main: time 2016-02-05_12:41:46 on domain   3:     .19992 elapsed seconds
Timing for main: time 2016-02-05_12:42:00 on domain   3:     .26458 elapsed seconds
Timing for main: time 2016-02-05_12:41:40 on domain   4:     .21561 elapsed seconds
Timing for main: time 2016-02-05_12:42:00 on domain   4:     .21373 elapsed seconds
Timing for main: time 2016-02-05_12:42:00 on domain   2:    1.77398 elapsed seconds
Timing for main: time 2016-02-05_12:42:00 on domain   1:    5.49047 elapsed seconds
Timing for main: time 2016-02-05_12:42:13 on domain   3:     .19230 elapsed seconds
Timing for main: time 2016-02-05_12:42:26 on domain   3:     .17832 elapsed seconds
Timing for main: time 2016-02-05_12:42:40 on domain   3:     .17852 elapsed seconds
Timing for main: time 2016-02-05_12:42:20 on domain   4:     .21605 elapsed seconds
Timing for main: time 2016-02-05_12:42:40 on domain   4:     .21267 elapsed seconds
Timing for main: time 2016-02-05_12:42:40 on domain   2:    1.67727 elapsed seconds
Timing for main: time 2016-02-05_12:42:53 on domain   3:     .19802 elapsed seconds
Timing for main: time 2016-02-05_12:43:06 on domain   3:     .17966 elapsed seconds
Timing for main: time 2016-02-05_12:43:20 on domain   3:     .25944 elapsed seconds
Timing for main: time 2016-02-05_12:43:00 on domain   4:     .21572 elapsed seconds
Timing for main: time 2016-02-05_12:43:20 on domain   4:     .21252 elapsed seconds
Timing for main: time 2016-02-05_12:43:20 on domain   2:    1.76784 elapsed seconds
Timing for main: time 2016-02-05_12:43:33 on domain   3:     .19223 elapsed seconds
Timing for main: time 2016-02-05_12:43:46 on domain   3:     .17833 elapsed seconds
Timing for main: time 2016-02-05_12:44:00 on domain   3:     .17830 elapsed seconds
Timing for main: time 2016-02-05_12:43:40 on domain   4:     .21616 elapsed seconds
Timing for main: time 2016-02-05_12:44:00 on domain   4:     .21295 elapsed seconds
Timing for main: time 2016-02-05_12:44:00 on domain   2:    1.66144 elapsed seconds
Timing for main: time 2016-02-05_12:44:00 on domain   1:    5.46650 elapsed seconds
Timing for main: time 2016-02-05_12:44:13 on domain   3:     .19122 elapsed seconds
Timing for main: time 2016-02-05_12:44:26 on domain   3:     .17853 elapsed seconds
Timing for main: time 2016-02-05_12:44:40 on domain   3:     .17912 elapsed seconds
Timing for main: time 2016-02-05_12:44:20 on domain   4:     .21617 elapsed seconds
Timing for main: time 2016-02-05_12:44:40 on domain   4:     .21304 elapsed seconds
Timing for main: time 2016-02-05_12:44:40 on domain   2:    1.67588 elapsed seconds
Timing for main: time 2016-02-05_12:44:53 on domain   3:     .19104 elapsed seconds
Timing for main: time 2016-02-05_12:45:06 on domain   3:     .18183 elapsed seconds
Timing for main: time 2016-02-05_12:45:20 on domain   3:     .17949 elapsed seconds
Timing for main: time 2016-02-05_12:45:00 on domain   4:     .22689 elapsed seconds
Timing for main: time 2016-02-05_12:45:20 on domain   4:     .21283 elapsed seconds
Timing for main: time 2016-02-05_12:45:20 on domain   2:    1.67572 elapsed seconds
Timing for main: time 2016-02-05_12:45:33 on domain   3:     .19207 elapsed seconds
Timing for main: time 2016-02-05_12:45:46 on domain   3:     .18041 elapsed seconds
Timing for main: time 2016-02-05_12:46:00 on domain   3:     .18709 elapsed seconds
Timing for main: time 2016-02-05_12:45:40 on domain   4:     .21562 elapsed seconds
Timing for main: time 2016-02-05_12:46:00 on domain   4:     .21269 elapsed seconds
Timing for main: time 2016-02-05_12:46:00 on domain   2:    1.67119 elapsed seconds
Timing for main: time 2016-02-05_12:46:00 on domain   1:    5.38227 elapsed seconds
Timing for main: time 2016-02-05_12:46:13 on domain   3:     .19167 elapsed seconds
Timing for main: time 2016-02-05_12:46:26 on domain   3:     .17960 elapsed seconds
Timing for main: time 2016-02-05_12:46:40 on domain   3:     .17851 elapsed seconds
Timing for main: time 2016-02-05_12:46:20 on domain   4:     .21646 elapsed seconds
Timing for main: time 2016-02-05_12:46:40 on domain   4:     .21497 elapsed seconds
Timing for main: time 2016-02-05_12:46:40 on domain   2:    1.67072 elapsed seconds
Timing for main: time 2016-02-05_12:46:53 on domain   3:     .19163 elapsed seconds
Timing for main: time 2016-02-05_12:47:06 on domain   3:     .17830 elapsed seconds
Timing for main: time 2016-02-05_12:47:20 on domain   3:     .18119 elapsed seconds
Timing for main: time 2016-02-05_12:47:00 on domain   4:     .21617 elapsed seconds
Timing for main: time 2016-02-05_12:47:20 on domain   4:     .21380 elapsed seconds
Timing for main: time 2016-02-05_12:47:20 on domain   2:    1.66378 elapsed seconds
Timing for main: time 2016-02-05_12:47:33 on domain   3:     .19127 elapsed seconds
Timing for main: time 2016-02-05_12:47:46 on domain   3:     .17830 elapsed seconds
Timing for main: time 2016-02-05_12:48:00 on domain   3:     .18057 elapsed seconds
Timing for main: time 2016-02-05_12:47:40 on domain   4:     .21900 elapsed seconds
Timing for main: time 2016-02-05_12:48:00 on domain   4:     .21283 elapsed seconds
Timing for main: time 2016-02-05_12:48:00 on domain   2:    1.67447 elapsed seconds
Timing for main: time 2016-02-05_12:48:00 on domain   1:    5.37452 elapsed seconds
Timing for main: time 2016-02-05_12:48:13 on domain   3:     .19189 elapsed seconds
Timing for main: time 2016-02-05_12:48:26 on domain   3:     .17865 elapsed seconds
Timing for main: time 2016-02-05_12:48:40 on domain   3:     .17898 elapsed seconds
Timing for main: time 2016-02-05_12:48:20 on domain   4:     .21610 elapsed seconds
Timing for main: time 2016-02-05_12:48:40 on domain   4:     .21270 elapsed seconds
Timing for main: time 2016-02-05_12:48:40 on domain   2:    1.66826 elapsed seconds
Timing for main: time 2016-02-05_12:48:53 on domain   3:     .19163 elapsed seconds
Timing for main: time 2016-02-05_12:49:06 on domain   3:     .18148 elapsed seconds
Timing for main: time 2016-02-05_12:49:20 on domain   3:     .17918 elapsed seconds
Timing for main: time 2016-02-05_12:49:00 on domain   4:     .21644 elapsed seconds
Timing for main: time 2016-02-05_12:49:20 on domain   4:     .21242 elapsed seconds
Timing for main: time 2016-02-05_12:49:20 on domain   2:    1.66572 elapsed seconds
Timing for main: time 2016-02-05_12:49:33 on domain   3:     .19124 elapsed seconds
Timing for main: time 2016-02-05_12:49:46 on domain   3:     .17886 elapsed seconds
Timing for main: time 2016-02-05_12:50:00 on domain   3:     .18114 elapsed seconds
Timing for main: time 2016-02-05_12:49:40 on domain   4:     .21590 elapsed seconds
Timing for main: time 2016-02-05_12:50:00 on domain   4:     .22270 elapsed seconds
Timing for main: time 2016-02-05_12:50:00 on domain   2:    1.67276 elapsed seconds
Timing for main: time 2016-02-05_12:50:00 on domain   1:    5.36613 elapsed seconds
Timing for main: time 2016-02-05_12:50:13 on domain   3:     .19193 elapsed seconds
Timing for main: time 2016-02-05_12:50:26 on domain   3:     .18132 elapsed seconds
Timing for main: time 2016-02-05_12:50:40 on domain   3:     .18059 elapsed seconds
Timing for main: time 2016-02-05_12:50:20 on domain   4:     .21644 elapsed seconds
Timing for main: time 2016-02-05_12:50:40 on domain   4:     .21226 elapsed seconds
Timing for main: time 2016-02-05_12:50:40 on domain   2:    1.67148 elapsed seconds
Timing for main: time 2016-02-05_12:50:53 on domain   3:     .19136 elapsed seconds
Timing for main: time 2016-02-05_12:51:06 on domain   3:     .18665 elapsed seconds
Timing for main: time 2016-02-05_12:51:20 on domain   3:     .17841 elapsed seconds
Timing for main: time 2016-02-05_12:51:00 on domain   4:     .21652 elapsed seconds
Timing for main: time 2016-02-05_12:51:20 on domain   4:     .21302 elapsed seconds
Timing for main: time 2016-02-05_12:51:20 on domain   2:    1.67345 elapsed seconds
Timing for main: time 2016-02-05_12:51:33 on domain   3:     .19219 elapsed seconds
Timing for main: time 2016-02-05_12:51:46 on domain   3:     .17919 elapsed seconds
Timing for main: time 2016-02-05_12:52:00 on domain   3:     .17861 elapsed seconds
Timing for main: time 2016-02-05_12:51:40 on domain   4:     .21644 elapsed seconds
Timing for main: time 2016-02-05_12:52:00 on domain   4:     .21299 elapsed seconds
Timing for main: time 2016-02-05_12:52:00 on domain   2:    1.66290 elapsed seconds
Timing for main: time 2016-02-05_12:52:00 on domain   1:    5.41778 elapsed seconds
Timing for main: time 2016-02-05_12:52:13 on domain   3:     .19233 elapsed seconds
Timing for main: time 2016-02-05_12:52:26 on domain   3:     .17862 elapsed seconds
Timing for main: time 2016-02-05_12:52:40 on domain   3:     .18472 elapsed seconds
Timing for main: time 2016-02-05_12:52:20 on domain   4:     .21712 elapsed seconds
Timing for main: time 2016-02-05_12:52:40 on domain   4:     .21505 elapsed seconds
Timing for main: time 2016-02-05_12:52:40 on domain   2:    1.67626 elapsed seconds
Timing for main: time 2016-02-05_12:52:53 on domain   3:     .19149 elapsed seconds
Timing for main: time 2016-02-05_12:53:06 on domain   3:     .17837 elapsed seconds
Timing for main: time 2016-02-05_12:53:20 on domain   3:     .18217 elapsed seconds
Timing for main: time 2016-02-05_12:53:00 on domain   4:     .21641 elapsed seconds
Timing for main: time 2016-02-05_12:53:20 on domain   4:     .21276 elapsed seconds
Timing for main: time 2016-02-05_12:53:20 on domain   2:    1.67543 elapsed seconds
Timing for main: time 2016-02-05_12:53:33 on domain   3:     .19125 elapsed seconds
Timing for main: time 2016-02-05_12:53:46 on domain   3:     .17857 elapsed seconds
Timing for main: time 2016-02-05_12:54:00 on domain   3:     .17867 elapsed seconds
Timing for main: time 2016-02-05_12:53:40 on domain   4:     .21625 elapsed seconds
Timing for main: time 2016-02-05_12:54:00 on domain   4:     .21257 elapsed seconds
Timing for main: time 2016-02-05_12:54:00 on domain   2:    1.66219 elapsed seconds
Timing for main: time 2016-02-05_12:54:00 on domain   1:    5.38034 elapsed seconds
Timing for main: time 2016-02-05_12:54:13 on domain   3:     .19128 elapsed seconds
Timing for main: time 2016-02-05_12:54:26 on domain   3:     .17851 elapsed seconds
Timing for main: time 2016-02-05_12:54:40 on domain   3:     .17841 elapsed seconds
Timing for main: time 2016-02-05_12:54:20 on domain   4:     .21615 elapsed seconds
Timing for main: time 2016-02-05_12:54:40 on domain   4:     .21278 elapsed seconds
Timing for main: time 2016-02-05_12:54:40 on domain   2:    1.67911 elapsed seconds
Timing for main: time 2016-02-05_12:54:53 on domain   3:     .19446 elapsed seconds
Timing for main: time 2016-02-05_12:55:06 on domain   3:     .17765 elapsed seconds
Timing for main: time 2016-02-05_12:55:20 on domain   3:     .17939 elapsed seconds
Timing for main: time 2016-02-05_12:55:00 on domain   4:     .22560 elapsed seconds
Timing for main: time 2016-02-05_12:55:20 on domain   4:     .21316 elapsed seconds
Timing for main: time 2016-02-05_12:55:20 on domain   2:    1.67398 elapsed seconds
Timing for main: time 2016-02-05_12:55:33 on domain   3:     .19163 elapsed seconds
Timing for main: time 2016-02-05_12:55:46 on domain   3:     .17854 elapsed seconds
Timing for main: time 2016-02-05_12:56:00 on domain   3:     .19040 elapsed seconds
Timing for main: time 2016-02-05_12:55:40 on domain   4:     .21641 elapsed seconds
Timing for main: time 2016-02-05_12:56:00 on domain   4:     .21278 elapsed seconds
Timing for main: time 2016-02-05_12:56:00 on domain   2:    1.67398 elapsed seconds
Timing for main: time 2016-02-05_12:56:00 on domain   1:    5.38759 elapsed seconds
Timing for main: time 2016-02-05_12:56:13 on domain   3:     .19967 elapsed seconds
Timing for main: time 2016-02-05_12:56:26 on domain   3:     .17841 elapsed seconds
Timing for main: time 2016-02-05_12:56:40 on domain   3:     .17892 elapsed seconds
Timing for main: time 2016-02-05_12:56:20 on domain   4:     .21636 elapsed seconds
Timing for main: time 2016-02-05_12:56:40 on domain   4:     .21275 elapsed seconds
Timing for main: time 2016-02-05_12:56:40 on domain   2:    1.67860 elapsed seconds
Timing for main: time 2016-02-05_12:56:53 on domain   3:     .19156 elapsed seconds
Timing for main: time 2016-02-05_12:57:06 on domain   3:     .17874 elapsed seconds
Timing for main: time 2016-02-05_12:57:20 on domain   3:     .18092 elapsed seconds
Timing for main: time 2016-02-05_12:57:00 on domain   4:     .21732 elapsed seconds
Timing for main: time 2016-02-05_12:57:20 on domain   4:     .21244 elapsed seconds
Timing for main: time 2016-02-05_12:57:20 on domain   2:    1.66888 elapsed seconds
Timing for main: time 2016-02-05_12:57:33 on domain   3:     .19329 elapsed seconds
Timing for main: time 2016-02-05_12:57:46 on domain   3:     .17663 elapsed seconds
Timing for main: time 2016-02-05_12:58:00 on domain   3:     .17937 elapsed seconds
Timing for main: time 2016-02-05_12:57:40 on domain   4:     .21793 elapsed seconds
Timing for main: time 2016-02-05_12:58:00 on domain   4:     .21190 elapsed seconds
Timing for main: time 2016-02-05_12:58:00 on domain   2:    1.66284 elapsed seconds
Timing for main: time 2016-02-05_12:58:00 on domain   1:    5.36998 elapsed seconds
  photolysis_driver: called for domain  1
Timing for main: time 2016-02-05_12:58:13 on domain   3:     .19146 elapsed seconds
Timing for main: time 2016-02-05_12:58:26 on domain   3:     .18361 elapsed seconds
Timing for main: time 2016-02-05_12:58:40 on domain   3:     .17827 elapsed seconds
Timing for main: time 2016-02-05_12:58:20 on domain   4:     .21659 elapsed seconds
Timing for main: time 2016-02-05_12:58:40 on domain   4:     .21304 elapsed seconds
Timing for main: time 2016-02-05_12:58:40 on domain   2:    1.68305 elapsed seconds
Timing for main: time 2016-02-05_12:58:53 on domain   3:     .19068 elapsed seconds
Timing for main: time 2016-02-05_12:59:06 on domain   3:     .17923 elapsed seconds
Timing for main: time 2016-02-05_12:59:20 on domain   3:     .17924 elapsed seconds
Timing for main: time 2016-02-05_12:59:00 on domain   4:     .21633 elapsed seconds
Timing for main: time 2016-02-05_12:59:20 on domain   4:     .21270 elapsed seconds
Timing for main: time 2016-02-05_12:59:20 on domain   2:    1.66137 elapsed seconds
  photolysis_driver: called for domain  2
Timing for main: time 2016-02-05_12:59:33 on domain   3:     .19198 elapsed seconds
Timing for main: time 2016-02-05_12:59:46 on domain   3:     .17856 elapsed seconds
  photolysis_driver: called for domain  3
Timing for main: time 2016-02-05_13:00:00 on domain   3:    1.04426 elapsed seconds
Timing for main: time 2016-02-05_12:59:40 on domain   4:     .21799 elapsed seconds
  photolysis_driver: called for domain  4
Timing for main: time 2016-02-05_13:00:00 on domain   4:    1.23631 elapsed seconds
Timing for main: time 2016-02-05_13:00:00 on domain   2:    4.64287 elapsed seconds
Timing for main: time 2016-02-05_13:00:00 on domain   1:    9.03721 elapsed seconds
Timing for Writing wrfout_d01_2016-02-05_13:00:00 for domain        1:    1.39003 elapsed seconds
  HOURLY EMISSIONS UPDATE TIME     3600.0        .0
 mediation_integrate: med_read_wrf_chem_emissions: Read emissions for time 2016-02-05_13:00:00
 **WARNING** Time in input file not being checked **WARNING**
Timing for Writing wrfout_d02_2016-02-05_13:00:00 for domain        2:    1.98835 elapsed seconds
Timing for Writing wrfout_d03_2016-02-05_13:00:00 for domain        3:    1.91661 elapsed seconds
Timing for main: time 2016-02-05_13:00:13 on domain   3:    2.31692 elapsed seconds
Timing for main: time 2016-02-05_13:00:26 on domain   3:     .19538 elapsed seconds
Timing for main: time 2016-02-05_13:00:40 on domain   3:     .18941 elapsed seconds
Timing for Writing wrfout_d04_2016-02-05_13:00:00 for domain        4:    1.86607 elapsed seconds
Timing for main: time 2016-02-05_13:00:20 on domain   4:    2.33472 elapsed seconds
Timing for main: time 2016-02-05_13:00:40 on domain   4:     .23986 elapsed seconds
Timing for main: time 2016-02-05_13:00:40 on domain   2:    8.20975 elapsed seconds
Timing for main: time 2016-02-05_13:00:53 on domain   3:     .19842 elapsed seconds
Timing for main: time 2016-02-05_13:01:06 on domain   3:     .17870 elapsed seconds
Timing for main: time 2016-02-05_13:01:20 on domain   3:     .18702 elapsed seconds
Timing for main: time 2016-02-05_13:01:00 on domain   4:     .21675 elapsed seconds
Timing for main: time 2016-02-05_13:01:20 on domain   4:     .21259 elapsed seconds
Timing for main: time 2016-02-05_13:01:20 on domain   2:    1.68807 elapsed seconds
Timing for main: time 2016-02-05_13:01:33 on domain   3:     .19395 elapsed seconds
Timing for main: time 2016-02-05_13:01:46 on domain   3:     .17874 elapsed seconds
Timing for main: time 2016-02-05_13:02:00 on domain   3:     .17944 elapsed seconds
Timing for main: time 2016-02-05_13:01:40 on domain   4:     .21641 elapsed seconds
Timing for main: time 2016-02-05_13:02:00 on domain   4:     .21272 elapsed seconds
Timing for main: time 2016-02-05_13:02:00 on domain   2:    1.66533 elapsed seconds
Timing for main: time 2016-02-05_13:02:00 on domain   1:   13.86737 elapsed seconds
Timing for main: time 2016-02-05_13:02:13 on domain   3:     .19247 elapsed seconds
Timing for main: time 2016-02-05_13:02:26 on domain   3:     .17932 elapsed seconds
Timing for main: time 2016-02-05_13:02:40 on domain   3:     .17923 elapsed seconds
Timing for main: time 2016-02-05_13:02:20 on domain   4:     .21650 elapsed seconds
Timing for main: time 2016-02-05_13:02:40 on domain   4:     .21303 elapsed seconds
Timing for main: time 2016-02-05_13:02:40 on domain   2:    1.67152 elapsed seconds
Timing for main: time 2016-02-05_13:02:53 on domain   3:     .19197 elapsed seconds
Timing for main: time 2016-02-05_13:03:06 on domain   3:     .18155 elapsed seconds
Timing for main: time 2016-02-05_13:03:20 on domain   3:     .18014 elapsed seconds
Timing for main: time 2016-02-05_13:03:00 on domain   4:     .21591 elapsed seconds
Timing for main: time 2016-02-05_13:03:20 on domain   4:     .21294 elapsed seconds
Timing for main: time 2016-02-05_13:03:20 on domain   2:    1.66805 elapsed seconds
Timing for main: time 2016-02-05_13:03:33 on domain   3:     .19117 elapsed seconds
Timing for main: time 2016-02-05_13:03:46 on domain   3:     .17971 elapsed seconds
Timing for main: time 2016-02-05_13:04:00 on domain   3:     .18243 elapsed seconds
Timing for main: time 2016-02-05_13:03:40 on domain   4:     .21374 elapsed seconds
Timing for main: time 2016-02-05_13:04:00 on domain   4:     .21350 elapsed seconds
Timing for main: time 2016-02-05_13:04:00 on domain   2:    1.67789 elapsed seconds
Timing for main: time 2016-02-05_13:04:00 on domain   1:    5.37679 elapsed seconds
Timing for main: time 2016-02-05_13:04:13 on domain   3:     .19151 elapsed seconds
Timing for main: time 2016-02-05_13:04:26 on domain   3:     .17826 elapsed seconds
Timing for main: time 2016-02-05_13:04:40 on domain   3:     .17998 elapsed seconds
Timing for main: time 2016-02-05_13:04:20 on domain   4:     .21681 elapsed seconds
Timing for main: time 2016-02-05_13:04:40 on domain   4:     .21266 elapsed seconds
Timing for main: time 2016-02-05_13:04:40 on domain   2:    1.67199 elapsed seconds
Timing for main: time 2016-02-05_13:04:53 on domain   3:     .19157 elapsed seconds
Timing for main: time 2016-02-05_13:05:06 on domain   3:     .17987 elapsed seconds
Timing for main: time 2016-02-05_13:05:20 on domain   3:     .27368 elapsed seconds
Timing for main: time 2016-02-05_13:05:00 on domain   4:     .23249 elapsed seconds
Timing for main: time 2016-02-05_13:05:20 on domain   4:     .30280 elapsed seconds
Timing for main: time 2016-02-05_13:05:20 on domain   2:    1.87229 elapsed seconds
Timing for main: time 2016-02-05_13:05:33 on domain   3:     .19169 elapsed seconds
Timing for main: time 2016-02-05_13:05:46 on domain   3:     .17909 elapsed seconds
Timing for main: time 2016-02-05_13:06:00 on domain   3:     .17907 elapsed seconds
Timing for main: time 2016-02-05_13:05:40 on domain   4:     .21639 elapsed seconds
Timing for main: time 2016-02-05_13:06:00 on domain   4:     .21285 elapsed seconds
Timing for main: time 2016-02-05_13:06:00 on domain   2:    1.66112 elapsed seconds
Timing for main: time 2016-02-05_13:06:00 on domain   1:    5.57141 elapsed seconds
Timing for main: time 2016-02-05_13:06:13 on domain   3:     .19134 elapsed seconds
Timing for main: time 2016-02-05_13:06:26 on domain   3:     .18706 elapsed seconds
Timing for main: time 2016-02-05_13:06:40 on domain   3:     .18051 elapsed seconds
Timing for main: time 2016-02-05_13:06:20 on domain   4:     .21622 elapsed seconds
Timing for main: time 2016-02-05_13:06:40 on domain   4:     .21377 elapsed seconds
Timing for main: time 2016-02-05_13:06:40 on domain   2:    1.67936 elapsed seconds
Timing for main: time 2016-02-05_13:06:53 on domain   3:     .19166 elapsed seconds
Timing for main: time 2016-02-05_13:07:06 on domain   3:     .17865 elapsed seconds
Timing for main: time 2016-02-05_13:07:20 on domain   3:     .18057 elapsed seconds
Timing for main: time 2016-02-05_13:07:00 on domain   4:     .24695 elapsed seconds
Timing for main: time 2016-02-05_13:07:20 on domain   4:     .22608 elapsed seconds
Timing for main: time 2016-02-05_13:07:20 on domain   2:    1.70718 elapsed seconds
Timing for main: time 2016-02-05_13:07:33 on domain   3:     .19168 elapsed seconds
Timing for main: time 2016-02-05_13:07:46 on domain   3:     .17913 elapsed seconds
Timing for main: time 2016-02-05_13:08:00 on domain   3:     .17854 elapsed seconds
Timing for main: time 2016-02-05_13:07:40 on domain   4:     .21625 elapsed seconds
Timing for main: time 2016-02-05_13:08:00 on domain   4:     .21293 elapsed seconds
Timing for main: time 2016-02-05_13:08:00 on domain   2:    1.66313 elapsed seconds
Timing for main: time 2016-02-05_13:08:00 on domain   1:    5.40921 elapsed seconds
Timing for main: time 2016-02-05_13:08:13 on domain   3:     .19152 elapsed seconds
Timing for main: time 2016-02-05_13:08:26 on domain   3:     .17828 elapsed seconds
Timing for main: time 2016-02-05_13:08:40 on domain   3:     .17914 elapsed seconds
Timing for main: time 2016-02-05_13:08:20 on domain   4:     .21647 elapsed seconds
Timing for main: time 2016-02-05_13:08:40 on domain   4:     .21237 elapsed seconds
Timing for main: time 2016-02-05_13:08:40 on domain   2:    1.67422 elapsed seconds
Timing for main: time 2016-02-05_13:08:53 on domain   3:     .19129 elapsed seconds
Timing for main: time 2016-02-05_13:09:06 on domain   3:     .17888 elapsed seconds
Timing for main: time 2016-02-05_13:09:20 on domain   3:     .17905 elapsed seconds
Timing for main: time 2016-02-05_13:09:00 on domain   4:     .21734 elapsed seconds
Timing for main: time 2016-02-05_13:09:20 on domain   4:     .21201 elapsed seconds
Timing for main: time 2016-02-05_13:09:20 on domain   2:    1.67193 elapsed seconds
Timing for main: time 2016-02-05_13:09:33 on domain   3:     .19081 elapsed seconds
Timing for main: time 2016-02-05_13:09:46 on domain   3:     .17994 elapsed seconds
Timing for main: time 2016-02-05_13:10:00 on domain   3:     .17956 elapsed seconds
Timing for main: time 2016-02-05_13:09:40 on domain   4:     .21702 elapsed seconds
Timing for main: time 2016-02-05_13:10:00 on domain   4:     .22206 elapsed seconds
Timing for main: time 2016-02-05_13:10:00 on domain   2:    1.67330 elapsed seconds
Timing for main: time 2016-02-05_13:10:00 on domain   1:    5.37831 elapsed seconds
Timing for main: time 2016-02-05_13:10:13 on domain   3:     .19233 elapsed seconds
Timing for main: time 2016-02-05_13:10:26 on domain   3:     .18437 elapsed seconds
Timing for main: time 2016-02-05_13:10:40 on domain   3:     .18054 elapsed seconds
Timing for main: time 2016-02-05_13:10:20 on domain   4:     .21723 elapsed seconds
Timing for main: time 2016-02-05_13:10:40 on domain   4:     .21234 elapsed seconds
Timing for main: time 2016-02-05_13:10:40 on domain   2:    1.67721 elapsed seconds
Timing for main: time 2016-02-05_13:10:53 on domain   3:     .19147 elapsed seconds
Timing for main: time 2016-02-05_13:11:06 on domain   3:     .17880 elapsed seconds
Timing for main: time 2016-02-05_13:11:20 on domain   3:     .17833 elapsed seconds
Timing for main: time 2016-02-05_13:11:00 on domain   4:     .21356 elapsed seconds
Timing for main: time 2016-02-05_13:11:20 on domain   4:     .21272 elapsed seconds
Timing for main: time 2016-02-05_13:11:20 on domain   2:    1.66078 elapsed seconds
Timing for main: time 2016-02-05_13:11:33 on domain   3:     .19873 elapsed seconds
Timing for main: time 2016-02-05_13:11:46 on domain   3:     .17887 elapsed seconds
Timing for main: time 2016-02-05_13:12:00 on domain   3:     .17873 elapsed seconds
Timing for main: time 2016-02-05_13:11:40 on domain   4:     .21632 elapsed seconds
Timing for main: time 2016-02-05_13:12:00 on domain   4:     .22128 elapsed seconds
Timing for main: time 2016-02-05_13:12:00 on domain   2:    1.67874 elapsed seconds
Timing for main: time 2016-02-05_13:12:00 on domain   1:    5.38403 elapsed seconds
Timing for main: time 2016-02-05_13:12:13 on domain   3:     .19125 elapsed seconds
Timing for main: time 2016-02-05_13:12:26 on domain   3:     .17905 elapsed seconds
Timing for main: time 2016-02-05_13:12:40 on domain   3:     .17885 elapsed seconds
Timing for main: time 2016-02-05_13:12:20 on domain   4:     .21632 elapsed seconds
Timing for main: time 2016-02-05_13:12:40 on domain   4:     .21291 elapsed seconds
Timing for main: time 2016-02-05_13:12:40 on domain   2:    1.66932 elapsed seconds
Timing for main: time 2016-02-05_13:12:53 on domain   3:     .19123 elapsed seconds
Timing for main: time 2016-02-05_13:13:06 on domain   3:     .17867 elapsed seconds
Timing for main: time 2016-02-05_13:13:20 on domain   3:     .18327 elapsed seconds
Timing for main: time 2016-02-05_13:13:00 on domain   4:     .21593 elapsed seconds
Timing for main: time 2016-02-05_13:13:20 on domain   4:     .21266 elapsed seconds
Timing for main: time 2016-02-05_13:13:20 on domain   2:    1.66469 elapsed seconds
Timing for main: time 2016-02-05_13:13:33 on domain   3:     .19113 elapsed seconds
Timing for main: time 2016-02-05_13:13:46 on domain   3:     .17912 elapsed seconds
Timing for main: time 2016-02-05_13:14:00 on domain   3:     .17890 elapsed seconds
Timing for main: time 2016-02-05_13:13:40 on domain   4:     .21654 elapsed seconds
Timing for main: time 2016-02-05_13:14:00 on domain   4:     .21259 elapsed seconds
Timing for main: time 2016-02-05_13:14:00 on domain   2:    1.66181 elapsed seconds
Timing for main: time 2016-02-05_13:14:00 on domain   1:    5.35456 elapsed seconds
Timing for main: time 2016-02-05_13:14:13 on domain   3:     .19127 elapsed seconds
Timing for main: time 2016-02-05_13:14:26 on domain   3:     .17892 elapsed seconds
Timing for main: time 2016-02-05_13:14:40 on domain   3:     .17906 elapsed seconds
Timing for main: time 2016-02-05_13:14:20 on domain   4:     .21587 elapsed seconds
Timing for main: time 2016-02-05_13:14:40 on domain   4:     .21308 elapsed seconds
Timing for main: time 2016-02-05_13:14:40 on domain   2:    1.67775 elapsed seconds
Timing for main: time 2016-02-05_13:14:53 on domain   3:     .19520 elapsed seconds
Timing for main: time 2016-02-05_13:15:06 on domain   3:     .17715 elapsed seconds
Timing for main: time 2016-02-05_13:15:20 on domain   3:     .17899 elapsed seconds
Timing for main: time 2016-02-05_13:15:00 on domain   4:     .22603 elapsed seconds
Timing for main: time 2016-02-05_13:15:20 on domain   4:     .21201 elapsed seconds
Timing for main: time 2016-02-05_13:15:20 on domain   2:    1.67845 elapsed seconds
Timing for main: time 2016-02-05_13:15:33 on domain   3:     .19320 elapsed seconds
Timing for main: time 2016-02-05_13:15:46 on domain   3:     .17758 elapsed seconds
Timing for main: time 2016-02-05_13:16:00 on domain   3:     .17912 elapsed seconds
Timing for main: time 2016-02-05_13:15:40 on domain   4:     .21631 elapsed seconds
Timing for main: time 2016-02-05_13:16:00 on domain   4:     .21252 elapsed seconds
Timing for main: time 2016-02-05_13:16:00 on domain   2:    1.66204 elapsed seconds
Timing for main: time 2016-02-05_13:16:00 on domain   1:    5.37851 elapsed seconds
Timing for main: time 2016-02-05_13:16:13 on domain   3:     .19145 elapsed seconds
Timing for main: time 2016-02-05_13:16:26 on domain   3:     .18000 elapsed seconds
Timing for main: time 2016-02-05_13:16:40 on domain   3:     .18659 elapsed seconds
Timing for main: time 2016-02-05_13:16:20 on domain   4:     .26022 elapsed seconds
Timing for main: time 2016-02-05_13:16:40 on domain   4:     .21332 elapsed seconds
Timing for main: time 2016-02-05_13:16:40 on domain   2:    1.72485 elapsed seconds
Timing for main: time 2016-02-05_13:16:53 on domain   3:     .19154 elapsed seconds
Timing for main: time 2016-02-05_13:17:06 on domain   3:     .17916 elapsed seconds
Timing for main: time 2016-02-05_13:17:20 on domain   3:     .17892 elapsed seconds
Timing for main: time 2016-02-05_13:17:00 on domain   4:     .21821 elapsed seconds
Timing for main: time 2016-02-05_13:17:20 on domain   4:     .21205 elapsed seconds
Timing for main: time 2016-02-05_13:17:20 on domain   2:    1.66306 elapsed seconds
[...]
Timing for main: time 2016-02-06_07:36:00 on domain   2:    1.67162 elapsed seconds
Timing for main: time 2016-02-06_07:36:00 on domain   1:    5.38259 elapsed seconds
Timing for main: time 2016-02-06_07:36:13 on domain   3:     .19564 elapsed seconds
Timing for main: time 2016-02-06_07:36:26 on domain   3:     .17922 elapsed seconds
Timing for main: time 2016-02-06_07:36:40 on domain   3:     .18123 elapsed seconds
Timing for main: time 2016-02-06_07:36:20 on domain   4:     .25005 elapsed seconds
Timing for main: time 2016-02-06_07:36:40 on domain   4:     .23154 elapsed seconds
Timing for main: time 2016-02-06_07:36:40 on domain   2:    1.75439 elapsed seconds
Timing for main: time 2016-02-06_07:36:53 on domain   3:     .19535 elapsed seconds
Timing for main: time 2016-02-06_07:37:06 on domain   3:     .17874 elapsed seconds
Timing for main: time 2016-02-06_07:37:20 on domain   3:     .18022 elapsed seconds
Timing for main: time 2016-02-06_07:37:00 on domain   4:     .21887 elapsed seconds
Timing for main: time 2016-02-06_07:37:20 on domain   4:     .20977 elapsed seconds
Timing for main: time 2016-02-06_07:37:20 on domain   2:    1.66317 elapsed seconds
Timing for main: time 2016-02-06_07:37:33 on domain   3:     .19647 elapsed seconds
Timing for main: time 2016-02-06_07:37:46 on domain   3:     .17931 elapsed seconds
Timing for main: time 2016-02-06_07:38:00 on domain   3:     .18042 elapsed seconds
Timing for main: time 2016-02-06_07:37:40 on domain   4:     .21969 elapsed seconds
Timing for main: time 2016-02-06_07:38:00 on domain   4:     .20952 elapsed seconds
Timing for main: time 2016-02-06_07:38:00 on domain   2:    1.66983 elapsed seconds
Timing for main: time 2016-02-06_07:38:00 on domain   1:    5.47264 elapsed seconds
Timing for main: time 2016-02-06_07:38:13 on domain   3:     .19602 elapsed seconds
Timing for main: time 2016-02-06_07:38:26 on domain   3:     .18063 elapsed seconds
Timing for main: time 2016-02-06_07:38:40 on domain   3:     .18507 elapsed seconds
Timing for main: time 2016-02-06_07:38:20 on domain   4:     .21557 elapsed seconds
Timing for main: time 2016-02-06_07:38:40 on domain   4:     .22436 elapsed seconds
Timing for main: time 2016-02-06_07:38:40 on domain   2:    1.70273 elapsed seconds
Timing for main: time 2016-02-06_07:38:53 on domain   3:     .19350 elapsed seconds
Timing for main: time 2016-02-06_07:39:06 on domain   3:     .18045 elapsed seconds
Timing for main: time 2016-02-06_07:39:20 on domain   3:     .18286 elapsed seconds
Timing for main: time 2016-02-06_07:39:00 on domain   4:     .21561 elapsed seconds
Timing for main: time 2016-02-06_07:39:20 on domain   4:     .21093 elapsed seconds
Timing for main: time 2016-02-06_07:39:20 on domain   2:    1.66849 elapsed seconds
Timing for main: time 2016-02-06_07:39:33 on domain   3:     .19566 elapsed seconds
Timing for main: time 2016-02-06_07:39:46 on domain   3:     .17909 elapsed seconds
Timing for main: time 2016-02-06_07:40:00 on domain   3:     .18117 elapsed seconds
Timing for main: time 2016-02-06_07:39:40 on domain   4:     .21566 elapsed seconds
Timing for main: time 2016-02-06_07:40:00 on domain   4:     .21689 elapsed seconds
Timing for main: time 2016-02-06_07:40:00 on domain   2:    1.67829 elapsed seconds
Timing for main: time 2016-02-06_07:40:00 on domain   1:    5.41125 elapsed seconds
Timing for main: time 2016-02-06_07:40:13 on domain   3:     .19578 elapsed seconds
Timing for main: time 2016-02-06_07:40:26 on domain   3:     .17976 elapsed seconds
Timing for main: time 2016-02-06_07:40:40 on domain   3:     .18825 elapsed seconds
Timing for main: time 2016-02-06_07:40:20 on domain   4:     .21559 elapsed seconds
Timing for main: time 2016-02-06_07:40:40 on domain   4:     .20965 elapsed seconds
Timing for main: time 2016-02-06_07:40:40 on domain   2:    1.71928 elapsed seconds
Timing for main: time 2016-02-06_07:40:53 on domain   3:     .19609 elapsed seconds
Timing for main: time 2016-02-06_07:41:06 on domain   3:     .18964 elapsed seconds
Timing for main: time 2016-02-06_07:41:20 on domain   3:     .18301 elapsed seconds
Timing for main: time 2016-02-06_07:41:00 on domain   4:     .21573 elapsed seconds
Timing for main: time 2016-02-06_07:41:20 on domain   4:     .21088 elapsed seconds
Timing for main: time 2016-02-06_07:41:20 on domain   2:    1.67927 elapsed seconds
Timing for main: time 2016-02-06_07:41:33 on domain   3:     .19618 elapsed seconds
Timing for main: time 2016-02-06_07:41:46 on domain   3:     .17993 elapsed seconds
Timing for main: time 2016-02-06_07:42:00 on domain   3:     .18060 elapsed seconds
Timing for main: time 2016-02-06_07:41:40 on domain   4:     .21569 elapsed seconds
Timing for main: time 2016-02-06_07:42:00 on domain   4:     .21228 elapsed seconds
Timing for main: time 2016-02-06_07:42:00 on domain   2:    1.66422 elapsed seconds
Timing for main: time 2016-02-06_07:42:00 on domain   1:    5.43173 elapsed seconds
Timing for main: time 2016-02-06_07:42:13 on domain   3:     .19612 elapsed seconds
Timing for main: time 2016-02-06_07:42:26 on domain   3:     .17901 elapsed seconds
Timing for main: time 2016-02-06_07:42:40 on domain   3:     .18046 elapsed seconds
Timing for main: time 2016-02-06_07:42:20 on domain   4:     .21533 elapsed seconds
Timing for main: time 2016-02-06_07:42:40 on domain   4:     .21099 elapsed seconds
Timing for main: time 2016-02-06_07:42:40 on domain   2:    1.67231 elapsed seconds
Timing for main: time 2016-02-06_07:42:53 on domain   3:     .19586 elapsed seconds
Timing for main: time 2016-02-06_07:43:06 on domain   3:     .17887 elapsed seconds
Timing for main: time 2016-02-06_07:43:20 on domain   3:     .18065 elapsed seconds
Timing for main: time 2016-02-06_07:43:00 on domain   4:     .21752 elapsed seconds
Timing for main: time 2016-02-06_07:43:20 on domain   4:     .21023 elapsed seconds
Timing for main: time 2016-02-06_07:43:20 on domain   2:    1.66818 elapsed seconds
Timing for main: time 2016-02-06_07:43:33 on domain   3:     .19633 elapsed seconds
Timing for main: time 2016-02-06_07:43:46 on domain   3:     .17861 elapsed seconds
Timing for main: time 2016-02-06_07:44:00 on domain   3:     .18047 elapsed seconds
Timing for main: time 2016-02-06_07:43:40 on domain   4:     .21671 elapsed seconds
Timing for main: time 2016-02-06_07:44:00 on domain   4:     .21084 elapsed seconds
Timing for main: time 2016-02-06_07:44:00 on domain   2:    1.68063 elapsed seconds
Timing for main: time 2016-02-06_07:44:00 on domain   1:    5.38315 elapsed seconds
Timing for main: time 2016-02-06_07:44:13 on domain   3:     .19613 elapsed seconds
Timing for main: time 2016-02-06_07:44:26 on domain   3:     .17668 elapsed seconds
Timing for main: time 2016-02-06_07:44:40 on domain   3:     .18162 elapsed seconds
Timing for main: time 2016-02-06_07:44:20 on domain   4:     .23326 elapsed seconds
Timing for main: time 2016-02-06_07:44:40 on domain   4:     .20969 elapsed seconds
Timing for main: time 2016-02-06_07:44:40 on domain   2:    1.70313 elapsed seconds
Timing for main: time 2016-02-06_07:44:53 on domain   3:     .19590 elapsed seconds
Timing for main: time 2016-02-06_07:45:06 on domain   3:     .17945 elapsed seconds
Timing for main: time 2016-02-06_07:45:20 on domain   3:     .25501 elapsed seconds
Timing for main: time 2016-02-06_07:45:00 on domain   4:     .22515 elapsed seconds
Timing for main: time 2016-02-06_07:45:20 on domain   4:     .21139 elapsed seconds
Timing for main: time 2016-02-06_07:45:20 on domain   2:    1.77708 elapsed seconds
Timing for main: time 2016-02-06_07:45:33 on domain   3:     .19598 elapsed seconds
Timing for main: time 2016-02-06_07:45:46 on domain   3:     .21358 elapsed seconds
Timing for main: time 2016-02-06_07:46:00 on domain   3:     .20108 elapsed seconds
Timing for main: time 2016-02-06_07:45:40 on domain   4:     .21598 elapsed seconds
Timing for main: time 2016-02-06_07:46:00 on domain   4:     .21043 elapsed seconds
Timing for main: time 2016-02-06_07:46:00 on domain   2:    1.75272 elapsed seconds
Timing for main: time 2016-02-06_07:46:00 on domain   1:    5.61628 elapsed seconds
Timing for main: time 2016-02-06_07:46:13 on domain   3:     .19538 elapsed seconds
Timing for main: time 2016-02-06_07:46:26 on domain   3:     .17894 elapsed seconds
Timing for main: time 2016-02-06_07:46:40 on domain   3:     .18048 elapsed seconds
Timing for main: time 2016-02-06_07:46:20 on domain   4:     .21579 elapsed seconds
Timing for main: time 2016-02-06_07:46:40 on domain   4:     .20909 elapsed seconds
Timing for main: time 2016-02-06_07:46:40 on domain   2:    1.67106 elapsed seconds
Timing for main: time 2016-02-06_07:46:53 on domain   3:     .19582 elapsed seconds
Timing for main: time 2016-02-06_07:47:06 on domain   3:     .17973 elapsed seconds
Timing for main: time 2016-02-06_07:47:20 on domain   3:     .18088 elapsed seconds
Timing for main: time 2016-02-06_07:47:00 on domain   4:     .21616 elapsed seconds
Timing for main: time 2016-02-06_07:47:20 on domain   4:     .21107 elapsed seconds
Timing for main: time 2016-02-06_07:47:20 on domain   2:    1.66736 elapsed seconds
Timing for main: time 2016-02-06_07:47:33 on domain   3:     .19611 elapsed seconds
Timing for main: time 2016-02-06_07:47:46 on domain   3:     .18049 elapsed seconds
Timing for main: time 2016-02-06_07:48:00 on domain   3:     .18263 elapsed seconds
Timing for main: time 2016-02-06_07:47:40 on domain   4:     .21542 elapsed seconds
Timing for main: time 2016-02-06_07:48:00 on domain   4:     .21239 elapsed seconds
Timing for main: time 2016-02-06_07:48:00 on domain   2:    1.66760 elapsed seconds
Timing for main: time 2016-02-06_07:48:00 on domain   1:    5.37491 elapsed seconds
Timing for main: time 2016-02-06_07:48:13 on domain   3:     .19652 elapsed seconds
Timing for main: time 2016-02-06_07:48:26 on domain   3:     .18237 elapsed seconds
Timing for main: time 2016-02-06_07:48:40 on domain   3:     .27092 elapsed seconds
Timing for main: time 2016-02-06_07:48:20 on domain   4:     .21567 elapsed seconds
Timing for main: time 2016-02-06_07:48:40 on domain   4:     .21101 elapsed seconds
Timing for main: time 2016-02-06_07:48:40 on domain   2:    1.76157 elapsed seconds
Timing for main: time 2016-02-06_07:48:53 on domain   3:     .19613 elapsed seconds
Timing for main: time 2016-02-06_07:49:06 on domain   3:     .18088 elapsed seconds
Timing for main: time 2016-02-06_07:49:20 on domain   3:     .18109 elapsed seconds
Timing for main: time 2016-02-06_07:49:00 on domain   4:     .21632 elapsed seconds
Timing for main: time 2016-02-06_07:49:20 on domain   4:     .20953 elapsed seconds
Timing for main: time 2016-02-06_07:49:20 on domain   2:    1.73482 elapsed seconds
Timing for main: time 2016-02-06_07:49:33 on domain   3:     .19643 elapsed seconds
Timing for main: time 2016-02-06_07:49:46 on domain   3:     .17915 elapsed seconds
Timing for main: time 2016-02-06_07:50:00 on domain   3:     .18087 elapsed seconds
Timing for main: time 2016-02-06_07:49:40 on domain   4:     .21583 elapsed seconds
Timing for main: time 2016-02-06_07:50:00 on domain   4:     .22045 elapsed seconds
Timing for main: time 2016-02-06_07:50:00 on domain   2:    1.67673 elapsed seconds
Timing for main: time 2016-02-06_07:50:00 on domain   1:    5.53599 elapsed seconds
Timing for main: time 2016-02-06_07:50:13 on domain   3:     .19609 elapsed seconds
Timing for main: time 2016-02-06_07:50:26 on domain   3:     .17926 elapsed seconds
Timing for main: time 2016-02-06_07:50:40 on domain   3:     .18090 elapsed seconds
Timing for main: time 2016-02-06_07:50:20 on domain   4:     .21573 elapsed seconds
Timing for main: time 2016-02-06_07:50:40 on domain   4:     .21092 elapsed seconds
Timing for main: time 2016-02-06_07:50:40 on domain   2:    1.67405 elapsed seconds
Timing for main: time 2016-02-06_07:50:53 on domain   3:     .20396 elapsed seconds
Timing for main: time 2016-02-06_07:51:06 on domain   3:     .18077 elapsed seconds
Timing for main: time 2016-02-06_07:51:20 on domain   3:     .18097 elapsed seconds
Timing for main: time 2016-02-06_07:51:00 on domain   4:     .21761 elapsed seconds
Timing for main: time 2016-02-06_07:51:20 on domain   4:     .21393 elapsed seconds
Timing for main: time 2016-02-06_07:51:20 on domain   2:    1.67734 elapsed seconds
Timing for main: time 2016-02-06_07:51:33 on domain   3:     .19640 elapsed seconds
Timing for main: time 2016-02-06_07:51:46 on domain   3:     .18058 elapsed seconds
Timing for main: time 2016-02-06_07:52:00 on domain   3:     .18070 elapsed seconds
Timing for main: time 2016-02-06_07:51:40 on domain   4:     .21534 elapsed seconds
Timing for main: time 2016-02-06_07:52:00 on domain   4:     .20950 elapsed seconds
Timing for main: time 2016-02-06_07:52:00 on domain   2:    1.66641 elapsed seconds
Timing for main: time 2016-02-06_07:52:00 on domain   1:    5.37818 elapsed seconds
Timing for main: time 2016-02-06_07:52:13 on domain   3:     .19601 elapsed seconds
Timing for main: time 2016-02-06_07:52:26 on domain   3:     .17958 elapsed seconds
Timing for main: time 2016-02-06_07:52:40 on domain   3:     .18099 elapsed seconds
Timing for main: time 2016-02-06_07:52:20 on domain   4:     .21582 elapsed seconds
Timing for main: time 2016-02-06_07:52:40 on domain   4:     .20948 elapsed seconds
Timing for main: time 2016-02-06_07:52:40 on domain   2:    1.67297 elapsed seconds
Timing for main: time 2016-02-06_07:52:53 on domain   3:     .19711 elapsed seconds
Timing for main: time 2016-02-06_07:53:06 on domain   3:     .18096 elapsed seconds
Timing for main: time 2016-02-06_07:53:20 on domain   3:     .18188 elapsed seconds
Timing for main: time 2016-02-06_07:53:00 on domain   4:     .22560 elapsed seconds
Timing for main: time 2016-02-06_07:53:20 on domain   4:     .21124 elapsed seconds
Timing for main: time 2016-02-06_07:53:20 on domain   2:    1.68093 elapsed seconds
Timing for main: time 2016-02-06_07:53:33 on domain   3:     .19634 elapsed seconds
Timing for main: time 2016-02-06_07:53:46 on domain   3:     .17943 elapsed seconds
Timing for main: time 2016-02-06_07:54:00 on domain   3:     .18123 elapsed seconds
Timing for main: time 2016-02-06_07:53:40 on domain   4:     .21583 elapsed seconds
Timing for main: time 2016-02-06_07:54:00 on domain   4:     .20967 elapsed seconds
Timing for main: time 2016-02-06_07:54:00 on domain   2:    1.66686 elapsed seconds
Timing for main: time 2016-02-06_07:54:00 on domain   1:    5.38918 elapsed seconds
Timing for main: time 2016-02-06_07:54:13 on domain   3:     .19621 elapsed seconds
Timing for main: time 2016-02-06_07:54:26 on domain   3:     .17996 elapsed seconds
Timing for main: time 2016-02-06_07:54:40 on domain   3:     .18467 elapsed seconds
Timing for main: time 2016-02-06_07:54:20 on domain   4:     .21559 elapsed seconds
Timing for main: time 2016-02-06_07:54:40 on domain   4:     .20948 elapsed seconds
Timing for main: time 2016-02-06_07:54:40 on domain   2:    1.68742 elapsed seconds
Timing for main: time 2016-02-06_07:54:53 on domain   3:     .19661 elapsed seconds
Timing for main: time 2016-02-06_07:55:06 on domain   3:     .17914 elapsed seconds
Timing for main: time 2016-02-06_07:55:20 on domain   3:     .18205 elapsed seconds
Timing for main: time 2016-02-06_07:55:00 on domain   4:     .22539 elapsed seconds
Timing for main: time 2016-02-06_07:55:20 on domain   4:     .21133 elapsed seconds
Timing for main: time 2016-02-06_07:55:20 on domain   2:    1.67753 elapsed seconds
Timing for main: time 2016-02-06_07:55:33 on domain   3:     .19647 elapsed seconds
Timing for main: time 2016-02-06_07:55:46 on domain   3:     .18092 elapsed seconds
Timing for main: time 2016-02-06_07:56:00 on domain   3:     .19010 elapsed seconds
Timing for main: time 2016-02-06_07:55:40 on domain   4:     .21579 elapsed seconds
Timing for main: time 2016-02-06_07:56:00 on domain   4:     .21095 elapsed seconds
Timing for main: time 2016-02-06_07:56:00 on domain   2:    1.67396 elapsed seconds
Timing for main: time 2016-02-06_07:56:00 on domain   1:    5.40045 elapsed seconds
Timing for main: time 2016-02-06_07:56:13 on domain   3:     .19737 elapsed seconds
Timing for main: time 2016-02-06_07:56:26 on domain   3:     .17933 elapsed seconds
Timing for main: time 2016-02-06_07:56:40 on domain   3:     .18100 elapsed seconds
Timing for main: time 2016-02-06_07:56:20 on domain   4:     .21507 elapsed seconds
Timing for main: time 2016-02-06_07:56:40 on domain   4:     .21099 elapsed seconds
Timing for main: time 2016-02-06_07:56:40 on domain   2:    1.67395 elapsed seconds
Timing for main: time 2016-02-06_07:56:53 on domain   3:     .19686 elapsed seconds
Timing for main: time 2016-02-06_07:57:06 on domain   3:     .18049 elapsed seconds
Timing for main: time 2016-02-06_07:57:20 on domain   3:     .18132 elapsed seconds
Timing for main: time 2016-02-06_07:57:00 on domain   4:     .21616 elapsed seconds
Timing for main: time 2016-02-06_07:57:20 on domain   4:     .20912 elapsed seconds
Timing for main: time 2016-02-06_07:57:20 on domain   2:    1.66712 elapsed seconds
Timing for main: time 2016-02-06_07:57:33 on domain   3:     .19642 elapsed seconds
Timing for main: time 2016-02-06_07:57:46 on domain   3:     .17979 elapsed seconds
Timing for main: time 2016-02-06_07:58:00 on domain   3:     .18117 elapsed seconds
Timing for main: time 2016-02-06_07:57:40 on domain   4:     .21582 elapsed seconds
Timing for main: time 2016-02-06_07:58:00 on domain   4:     .21092 elapsed seconds
Timing for main: time 2016-02-06_07:58:00 on domain   2:    1.66822 elapsed seconds
Timing for main: time 2016-02-06_07:58:00 on domain   1:    5.37085 elapsed seconds
  photolysis_driver: called for domain  1
Timing for main: time 2016-02-06_07:58:13 on domain   3:     .19669 elapsed seconds
Timing for main: time 2016-02-06_07:58:26 on domain   3:     .18172 elapsed seconds
Timing for main: time 2016-02-06_07:58:40 on domain   3:     .18113 elapsed seconds
Timing for main: time 2016-02-06_07:58:20 on domain   4:     .21516 elapsed seconds
Timing for main: time 2016-02-06_07:58:40 on domain   4:     .21096 elapsed seconds
Timing for main: time 2016-02-06_07:58:40 on domain   2:    1.67514 elapsed seconds
Timing for main: time 2016-02-06_07:58:53 on domain   3:     .19659 elapsed seconds
Timing for main: time 2016-02-06_07:59:06 on domain   3:     .17978 elapsed seconds
Timing for main: time 2016-02-06_07:59:20 on domain   3:     .18150 elapsed seconds
Timing for main: time 2016-02-06_07:59:00 on domain   4:     .21556 elapsed seconds
Timing for main: time 2016-02-06_07:59:20 on domain   4:     .20973 elapsed seconds
Timing for main: time 2016-02-06_07:59:20 on domain   2:    1.66726 elapsed seconds
  photolysis_driver: called for domain  2
Timing for main: time 2016-02-06_07:59:33 on domain   3:     .19649 elapsed seconds
Timing for main: time 2016-02-06_07:59:46 on domain   3:     .17927 elapsed seconds
  photolysis_driver: called for domain  3
Timing for main: time 2016-02-06_08:00:00 on domain   3:    1.19513 elapsed seconds
Timing for Writing wrfout_d03_2016-02-06_08:00:00 for domain        3:    1.72082 elapsed seconds
Timing for main: time 2016-02-06_07:59:40 on domain   4:     .21578 elapsed seconds
  photolysis_driver: called for domain  4
Timing for main: time 2016-02-06_08:00:00 on domain   4:    1.41370 elapsed seconds
Timing for Writing wrfout_d04_2016-02-06_08:00:00 for domain        4:    1.97715 elapsed seconds
Timing for main: time 2016-02-06_08:00:00 on domain   2:   10.37103 elapsed seconds
Timing for Writing wrfout_d02_2016-02-06_08:00:00 for domain        2:    2.01302 elapsed seconds
Timing for main: time 2016-02-06_08:00:00 on domain   1:   17.69068 elapsed seconds
Timing for Writing wrfout_d01_2016-02-06_08:00:00 for domain        1:    1.52654 elapsed seconds
 d01 2016-02-06_08:00:00 wrf: SUCCESS COMPLETE WRF
