taskid: 0 hostname: p10a51.pbm.ihost.com
  Ntasks in X  18 , ntasks in Y  20
 Setting blank km_opt entries to domain #1 values.
  --> The km_opt entry in the namelist.input is now max_domains.
 Setting blank diff_opt entries to domain #1 values.
  --> The diff_opt entry in the namelist.input is now max_domains.
 --- WARNING: traj_opt is zero, but num_traj is not zero; setting num_traj to zero.
 --- NOTE: hypsometric_opt is 2, setting adjust_heights = F
 --- NOTE: sst_update is 0, setting io_form_auxinput4 = 0 and auxinput4_interval = 0 for all domains
 --- NOTE: sst_update is 0, setting io_form_auxinput4 = 0 and auxinput4_interval = 0 for all domains
 --- NOTE: sst_update is 0, setting io_form_auxinput4 = 0 and auxinput4_interval = 0 for all domains
 --- NOTE: sst_update is 0, setting io_form_auxinput4 = 0 and auxinput4_interval = 0 for all domains
 --- NOTE: grid_fdda is 0 for domain      1, setting gfdda interval and ending time to 0 for that domain.
 --- NOTE: both grid_sfdda and pxlsm_soil_nudge are 0 for domain      1, setting sgfdda interval and ending time to 0 for that domain.
 --- NOTE: obs_nudge_opt is 0 for domain      1, setting obs nudging interval and ending time to 0 for that domain.
 --- NOTE: grid_fdda is 0 for domain      2, setting gfdda interval and ending time to 0 for that domain.
 --- NOTE: both grid_sfdda and pxlsm_soil_nudge are 0 for domain      2, setting sgfdda interval and ending time to 0 for that domain.
 --- NOTE: obs_nudge_opt is 0 for domain      2, setting obs nudging interval and ending time to 0 for that domain.
 --- NOTE: grid_fdda is 0 for domain      3, setting gfdda interval and ending time to 0 for that domain.
 --- NOTE: both grid_sfdda and pxlsm_soil_nudge are 0 for domain      3, setting sgfdda interval and ending time to 0 for that domain.
 --- NOTE: obs_nudge_opt is 0 for domain      3, setting obs nudging interval and ending time to 0 for that domain.
 --- NOTE: grid_fdda is 0 for domain      4, setting gfdda interval and ending time to 0 for that domain.
 --- NOTE: both grid_sfdda and pxlsm_soil_nudge are 0 for domain      4, setting sgfdda interval and ending time to 0 for that domain.
 --- NOTE: obs_nudge_opt is 0 for domain      4, setting obs nudging interval and ending time to 0 for that domain.
 bl_pbl_physics /= 4, implies mfshconv must be 0, resetting
 --- NOTE: num_soil_layers has been set to      4
 WRF V3.6 MODEL
  *************************************
  Parent domain
  ids,ide,jds,jde  1 271 1 181
  ims,ime,jms,jme  -4 22 -4 16
  ips,ipe,jps,jpe  1 15 1 9
  *************************************
 DYNAMICS OPTION: Eulerian Mass Coordinate
    alloc_space_field: domain  1 ,  59267392  bytes allocated
   med_initialdata_input: calling input_input
Timing for processing wrfinput file (stream 0) for domain        1:    5.05551 elapsed seconds
 INPUT LandUse = "USGS"
  LANDUSE TYPE = "USGS" FOUND 33  CATEGORIES 2  SEASONS WATER CATEGORY =  16  SNOW CATEGORY =  24
 INITIALIZE THREE Noah LSM RELATED TABLES
  LANDUSE TYPE = USGS FOUND 27  CATEGORIES
  INPUT SOIL TEXTURE CLASSIFICATION = STAS
  SOIL TEXTURE CLASSIFICATION = STAS FOUND 19  CATEGORIES
 *********************************************************************
 *             PROGRAM:WRF/CHEM V3.6 MODEL
 *                                                                   *
 *    PLEASE REPORT ANY BUGS TO WRF/CHEM HELP at                     *
 *                                                                   *
 *              wrfchemhelp.gsd@noaa.gov                             *
 *                                                                   *
 *********************************************************************
 WARNING: dust option 1 currently works only with the GOCART aerosol option.
 WARNING: sea salt option 1 currently works only with the GOCART aerosol option.
  *************************************
  Nesting domain
  ids,ide,jds,jde  1 361 1 253
  ims,ime,jms,jme  -4 30 -4 24
  ips,ipe,jps,jpe  1 20 1 13
  INTERMEDIATE domain
  ids,ide,jds,jde  74 199 47 136
  ims,ime,jms,jme  69 92 42 62
  ips,ipe,jps,jpe  72 82 45 52
  *************************************
 d01 2016-02-05_12:00:00  alloc_space_field: domain  2 ,  102743272  bytes allocated
 d01 2016-02-05_12:00:00  alloc_space_field: domain  2 ,  6348384  bytes allocated
 d01 2016-02-05_12:00:00 *** Initializing nest domain # 2 from an input file. ***
 d01 2016-02-05_12:00:00 med_initialdata_input: calling input_input
Timing for processing wrfinput file (stream 0) for domain        2:    7.88309 elapsed seconds
 INPUT LandUse = "USGS"
  LANDUSE TYPE = "USGS" FOUND 33  CATEGORIES 2  SEASONS WATER CATEGORY =  16  SNOW CATEGORY =  24
 INITIALIZE THREE Noah LSM RELATED TABLES
  LANDUSE TYPE = USGS FOUND 27  CATEGORIES
  INPUT SOIL TEXTURE CLASSIFICATION = STAS
  SOIL TEXTURE CLASSIFICATION = STAS FOUND 19  CATEGORIES
 *********************************************************************
 *             PROGRAM:WRF/CHEM V3.6 MODEL
 *                                                                   *
 *    PLEASE REPORT ANY BUGS TO WRF/CHEM HELP at                     *
 *                                                                   *
 *              wrfchemhelp.gsd@noaa.gov                             *
 *                                                                   *
 *********************************************************************
 WARNING: dust option 1 currently works only with the GOCART aerosol option.
 WARNING: sea salt option 1 currently works only with the GOCART aerosol option.
 INPUT LandUse = "USGS"
  LANDUSE TYPE = "USGS" FOUND 33  CATEGORIES 2  SEASONS WATER CATEGORY =  16  SNOW CATEGORY =  24
 INITIALIZE THREE Noah LSM RELATED TABLES
  LANDUSE TYPE = USGS FOUND 27  CATEGORIES
  INPUT SOIL TEXTURE CLASSIFICATION = STAS
  SOIL TEXTURE CLASSIFICATION = STAS FOUND 19  CATEGORIES
 *********************************************************************
 *             PROGRAM:WRF/CHEM V3.6 MODEL
 *                                                                   *
 *    PLEASE REPORT ANY BUGS TO WRF/CHEM HELP at                     *
 *                                                                   *
 *              wrfchemhelp.gsd@noaa.gov                             *
 *                                                                   *
 *********************************************************************
 WARNING: dust option 1 currently works only with the GOCART aerosol option.
 WARNING: sea salt option 1 currently works only with the GOCART aerosol option.
 INPUT LandUse = "USGS"
  LANDUSE TYPE = "USGS" FOUND 33  CATEGORIES 2  SEASONS WATER CATEGORY =  16  SNOW CATEGORY =  24
 INITIALIZE THREE Noah LSM RELATED TABLES
  LANDUSE TYPE = USGS FOUND 27  CATEGORIES
  INPUT SOIL TEXTURE CLASSIFICATION = STAS
  SOIL TEXTURE CLASSIFICATION = STAS FOUND 19  CATEGORIES
 *********************************************************************
 *             PROGRAM:WRF/CHEM V3.6 MODEL
 *                                                                   *
 *    PLEASE REPORT ANY BUGS TO WRF/CHEM HELP at                     *
 *                                                                   *
 *              wrfchemhelp.gsd@noaa.gov                             *
 *                                                                   *
 *********************************************************************
 WARNING: dust option 1 currently works only with the GOCART aerosol option.
 WARNING: sea salt option 1 currently works only with the GOCART aerosol option.
Timing for Writing wrfout_d01_2016-02-05_12:00:00 for domain        1:    3.06261 elapsed seconds
  mediation_integrate: med_read_wrf_chem_emissions: Open file wrfchemi_12z_d01
  HOURLY EMISSIONS UPDATE TIME         .0        .0
 mediation_integrate: med_read_wrf_chem_emissions: Read emissions for time 2016-02-05_12:00:00
 **WARNING** Time in input file not being checked **WARNING**
Timing for processing lateral boundary for domain        1:    4.17416 elapsed seconds
  Tile Strategy is not specified. Assuming 1D-Y
 WRF TILE   1 IS      1 IE     15 JS      1 JE      9
 WRF NUMBER OF TILES =   1
  photolysis_driver: called for domain  1
  *************************************
  Nesting domain
  ids,ide,jds,jde  1 307 1 241
  ims,ime,jms,jme  -4 27 -4 24
  ips,ipe,jps,jpe  1 17 1 12
  INTERMEDIATE domain
  ids,ide,jds,jde  124 231 35 120
  ims,ime,jms,jme  119 141 30 50
  ips,ipe,jps,jpe  122 131 33 40
  *************************************
 d02 2016-02-05_12:00:00  alloc_space_field: domain  3 ,  94276368  bytes allocated
 d02 2016-02-05_12:00:00  alloc_space_field: domain  3 ,  6083868  bytes allocated
 d02 2016-02-05_12:00:00 *** Initializing nest domain # 3 from an input file. ***
 d02 2016-02-05_12:00:00 med_initialdata_input: calling input_input
Timing for processing wrfinput file (stream 0) for domain        3:    6.43959 elapsed seconds
 INPUT LandUse = "USGS"
  LANDUSE TYPE = "USGS" FOUND 33  CATEGORIES 2  SEASONS WATER CATEGORY =  16  SNOW CATEGORY =  24
 INITIALIZE THREE Noah LSM RELATED TABLES
  LANDUSE TYPE = USGS FOUND 27  CATEGORIES
  INPUT SOIL TEXTURE CLASSIFICATION = STAS
  SOIL TEXTURE CLASSIFICATION = STAS FOUND 19  CATEGORIES
 *********************************************************************
 *             PROGRAM:WRF/CHEM V3.6 MODEL
 *                                                                   *
 *    PLEASE REPORT ANY BUGS TO WRF/CHEM HELP at                     *
 *                                                                   *
 *              wrfchemhelp.gsd@noaa.gov                             *
 *                                                                   *
 *********************************************************************
 WARNING: dust option 1 currently works only with the GOCART aerosol option.
 WARNING: sea salt option 1 currently works only with the GOCART aerosol option.
 INPUT LandUse = "USGS"
  LANDUSE TYPE = "USGS" FOUND 33  CATEGORIES 2  SEASONS WATER CATEGORY =  16  SNOW CATEGORY =  24
 INITIALIZE THREE Noah LSM RELATED TABLES
  LANDUSE TYPE = USGS FOUND 27  CATEGORIES
  INPUT SOIL TEXTURE CLASSIFICATION = STAS
  SOIL TEXTURE CLASSIFICATION = STAS FOUND 19  CATEGORIES
 *********************************************************************
 *             PROGRAM:WRF/CHEM V3.6 MODEL
 *                                                                   *
 *    PLEASE REPORT ANY BUGS TO WRF/CHEM HELP at                     *
 *                                                                   *
 *              wrfchemhelp.gsd@noaa.gov                             *
 *                                                                   *
 *********************************************************************
 WARNING: dust option 1 currently works only with the GOCART aerosol option.
 WARNING: sea salt option 1 currently works only with the GOCART aerosol option.
 INPUT LandUse = "USGS"
  LANDUSE TYPE = "USGS" FOUND 33  CATEGORIES 2  SEASONS WATER CATEGORY =  16  SNOW CATEGORY =  24
 INITIALIZE THREE Noah LSM RELATED TABLES
  LANDUSE TYPE = USGS FOUND 27  CATEGORIES
  INPUT SOIL TEXTURE CLASSIFICATION = STAS
  SOIL TEXTURE CLASSIFICATION = STAS FOUND 19  CATEGORIES
 *********************************************************************
 *             PROGRAM:WRF/CHEM V3.6 MODEL
 *                                                                   *
 *    PLEASE REPORT ANY BUGS TO WRF/CHEM HELP at                     *
 *                                                                   *
 *              wrfchemhelp.gsd@noaa.gov                             *
 *                                                                   *
 *********************************************************************
 WARNING: dust option 1 currently works only with the GOCART aerosol option.
 WARNING: sea salt option 1 currently works only with the GOCART aerosol option.
  *************************************
  Nesting domain
  ids,ide,jds,jde  1 217 1 388
  ims,ime,jms,jme  -4 24 -4 30
  ips,ipe,jps,jpe  1 12 1 20
  INTERMEDIATE domain
  ids,ide,jds,jde  225 302 83 217
  ims,ime,jms,jme  220 240 78 101
  ips,ipe,jps,jpe  223 230 81 91
  *************************************
 d02 2016-02-05_12:00:00  alloc_space_field: domain  4 ,  102706220  bytes allocated
 d02 2016-02-05_12:00:00 *** Initializing nest domain # 4 from an input file. ***
 d02 2016-02-05_12:00:00 med_initialdata_input: calling input_input
Timing for processing wrfinput file (stream 0) for domain        4:    7.83133 elapsed seconds
 INPUT LandUse = "USGS"
  LANDUSE TYPE = "USGS" FOUND 33  CATEGORIES 2  SEASONS WATER CATEGORY =  16  SNOW CATEGORY =  24
 INITIALIZE THREE Noah LSM RELATED TABLES
  LANDUSE TYPE = USGS FOUND 27  CATEGORIES
  INPUT SOIL TEXTURE CLASSIFICATION = STAS
  SOIL TEXTURE CLASSIFICATION = STAS FOUND 19  CATEGORIES
 *********************************************************************
 *             PROGRAM:WRF/CHEM V3.6 MODEL
 *                                                                   *
 *    PLEASE REPORT ANY BUGS TO WRF/CHEM HELP at                     *
 *                                                                   *
 *              wrfchemhelp.gsd@noaa.gov                             *
 *                                                                   *
 *********************************************************************
 WARNING: dust option 1 currently works only with the GOCART aerosol option.
 WARNING: sea salt option 1 currently works only with the GOCART aerosol option.
 INPUT LandUse = "USGS"
  LANDUSE TYPE = "USGS" FOUND 33  CATEGORIES 2  SEASONS WATER CATEGORY =  16  SNOW CATEGORY =  24
 INITIALIZE THREE Noah LSM RELATED TABLES
  LANDUSE TYPE = USGS FOUND 27  CATEGORIES
  INPUT SOIL TEXTURE CLASSIFICATION = STAS
  SOIL TEXTURE CLASSIFICATION = STAS FOUND 19  CATEGORIES
 *********************************************************************
 *             PROGRAM:WRF/CHEM V3.6 MODEL
 *                                                                   *
 *    PLEASE REPORT ANY BUGS TO WRF/CHEM HELP at                     *
 *                                                                   *
 *              wrfchemhelp.gsd@noaa.gov                             *
 *                                                                   *
 *********************************************************************
 WARNING: dust option 1 currently works only with the GOCART aerosol option.
 WARNING: sea salt option 1 currently works only with the GOCART aerosol option.
 INPUT LandUse = "USGS"
  LANDUSE TYPE = "USGS" FOUND 33  CATEGORIES 2  SEASONS WATER CATEGORY =  16  SNOW CATEGORY =  24
 INITIALIZE THREE Noah LSM RELATED TABLES
  LANDUSE TYPE = USGS FOUND 27  CATEGORIES
  INPUT SOIL TEXTURE CLASSIFICATION = STAS
  SOIL TEXTURE CLASSIFICATION = STAS FOUND 19  CATEGORIES
 *********************************************************************
 *             PROGRAM:WRF/CHEM V3.6 MODEL
 *                                                                   *
 *    PLEASE REPORT ANY BUGS TO WRF/CHEM HELP at                     *
 *                                                                   *
 *              wrfchemhelp.gsd@noaa.gov                             *
 *                                                                   *
 *********************************************************************
 WARNING: dust option 1 currently works only with the GOCART aerosol option.
 WARNING: sea salt option 1 currently works only with the GOCART aerosol option.
Timing for Writing wrfout_d02_2016-02-05_12:00:00 for domain        2:    3.41422 elapsed seconds
  mediation_integrate: med_read_wrf_chem_emissions: Open file wrfchemi_12z_d02
  HOURLY EMISSIONS UPDATE TIME         .0        .0
 mediation_integrate: med_read_wrf_chem_emissions: Read emissions for time 2016-02-05_12:00:00
 **WARNING** Time in input file not being checked **WARNING**
  Tile Strategy is not specified. Assuming 1D-Y
 WRF TILE   1 IS      1 IE     20 JS      1 JE     13
 WRF NUMBER OF TILES =   1
  photolysis_driver: called for domain  2
Timing for Writing wrfout_d03_2016-02-05_12:00:00 for domain        3:    3.39907 elapsed seconds
  mediation_integrate: med_read_wrf_chem_emissions: Open file wrfchemi_12z_d03
  HOURLY EMISSIONS UPDATE TIME         .0        .0
 mediation_integrate: med_read_wrf_chem_emissions: Read emissions for time 2016-02-05_12:00:00
 **WARNING** Time in input file not being checked **WARNING**
  Tile Strategy is not specified. Assuming 1D-Y
 WRF TILE   1 IS      1 IE     17 JS      1 JE     12
 WRF NUMBER OF TILES =   1
  photolysis_driver: called for domain  3
Timing for main: time 2016-02-05_12:00:13 on domain   3:    6.02829 elapsed seconds
Timing for main: time 2016-02-05_12:00:26 on domain   3:     .38236 elapsed seconds
Timing for main: time 2016-02-05_12:00:40 on domain   3:     .17974 elapsed seconds
Timing for Writing wrfout_d04_2016-02-05_12:00:00 for domain        4:    3.61510 elapsed seconds
  mediation_integrate: med_read_wrf_chem_emissions: Open file wrfchemi_12z_d04
  HOURLY EMISSIONS UPDATE TIME         .0        .0
 mediation_integrate: med_read_wrf_chem_emissions: Read emissions for time 2016-02-05_12:00:00
 **WARNING** Time in input file not being checked **WARNING**
  Tile Strategy is not specified. Assuming 1D-Y
 WRF TILE   1 IS      1 IE     12 JS      1 JE     20
 WRF NUMBER OF TILES =   1
  photolysis_driver: called for domain  4
Timing for main: time 2016-02-05_12:00:20 on domain   4:    6.50587 elapsed seconds
Timing for main: time 2016-02-05_12:00:40 on domain   4:     .38272 elapsed seconds
Timing for main: time 2016-02-05_12:00:40 on domain   2:   36.96332 elapsed seconds
Timing for main: time 2016-02-05_12:00:53 on domain   3:     .17170 elapsed seconds
Timing for main: time 2016-02-05_12:01:06 on domain   3:     .17184 elapsed seconds
Timing for main: time 2016-02-05_12:01:20 on domain   3:     .16917 elapsed seconds
Timing for main: time 2016-02-05_12:01:00 on domain   4:     .20471 elapsed seconds
Timing for main: time 2016-02-05_12:01:20 on domain   4:     .20088 elapsed seconds
Timing for main: time 2016-02-05_12:01:20 on domain   2:    1.63359 elapsed seconds
Timing for main: time 2016-02-05_12:01:33 on domain   3:     .16998 elapsed seconds
Timing for main: time 2016-02-05_12:01:46 on domain   3:     .21034 elapsed seconds
Timing for main: time 2016-02-05_12:02:00 on domain   3:     .19594 elapsed seconds
Timing for main: time 2016-02-05_12:01:40 on domain   4:     .20545 elapsed seconds
Timing for main: time 2016-02-05_12:02:00 on domain   4:     .19933 elapsed seconds
Timing for main: time 2016-02-05_12:02:00 on domain   2:    1.72196 elapsed seconds
Timing for main: time 2016-02-05_12:02:00 on domain   1:   60.74974 elapsed seconds
Timing for main: time 2016-02-05_12:02:13 on domain   3:     .17122 elapsed seconds
Timing for main: time 2016-02-05_12:02:26 on domain   3:     .17529 elapsed seconds
Timing for main: time 2016-02-05_12:02:40 on domain   3:     .16989 elapsed seconds
Timing for main: time 2016-02-05_12:02:20 on domain   4:     .20534 elapsed seconds
Timing for main: time 2016-02-05_12:02:40 on domain   4:     .18812 elapsed seconds
Timing for main: time 2016-02-05_12:02:40 on domain   2:    1.65083 elapsed seconds
Timing for main: time 2016-02-05_12:02:53 on domain   3:     .16537 elapsed seconds
Timing for main: time 2016-02-05_12:03:06 on domain   3:     .16282 elapsed seconds
Timing for main: time 2016-02-05_12:03:20 on domain   3:     .15732 elapsed seconds
Timing for main: time 2016-02-05_12:03:00 on domain   4:     .20312 elapsed seconds
Timing for main: time 2016-02-05_12:03:20 on domain   4:     .18549 elapsed seconds
Timing for main: time 2016-02-05_12:03:20 on domain   2:    1.60644 elapsed seconds
Timing for main: time 2016-02-05_12:03:33 on domain   3:     .16250 elapsed seconds
Timing for main: time 2016-02-05_12:03:46 on domain   3:     .15655 elapsed seconds
Timing for main: time 2016-02-05_12:04:00 on domain   3:     .15629 elapsed seconds
Timing for main: time 2016-02-05_12:03:40 on domain   4:     .20380 elapsed seconds
Timing for main: time 2016-02-05_12:04:00 on domain   4:     .18539 elapsed seconds
Timing for main: time 2016-02-05_12:04:00 on domain   2:    1.58560 elapsed seconds
Timing for main: time 2016-02-05_12:04:00 on domain   1:    5.19489 elapsed seconds
Timing for main: time 2016-02-05_12:04:13 on domain   3:     .16223 elapsed seconds
Timing for main: time 2016-02-05_12:04:26 on domain   3:     .15662 elapsed seconds
Timing for main: time 2016-02-05_12:04:40 on domain   3:     .15686 elapsed seconds
Timing for main: time 2016-02-05_12:04:20 on domain   4:     .20365 elapsed seconds
Timing for main: time 2016-02-05_12:04:40 on domain   4:     .18594 elapsed seconds
Timing for main: time 2016-02-05_12:04:40 on domain   2:    1.58536 elapsed seconds
Timing for main: time 2016-02-05_12:04:53 on domain   3:     .16644 elapsed seconds
Timing for main: time 2016-02-05_12:05:06 on domain   3:     .16208 elapsed seconds
Timing for main: time 2016-02-05_12:05:20 on domain   3:     .15529 elapsed seconds
Timing for main: time 2016-02-05_12:05:00 on domain   4:     .21065 elapsed seconds
Timing for main: time 2016-02-05_12:05:20 on domain   4:     .18617 elapsed seconds
Timing for main: time 2016-02-05_12:05:20 on domain   2:    1.60794 elapsed seconds
Timing for main: time 2016-02-05_12:05:33 on domain   3:     .16136 elapsed seconds
Timing for main: time 2016-02-05_12:05:46 on domain   3:     .15666 elapsed seconds
Timing for main: time 2016-02-05_12:06:00 on domain   3:     .15626 elapsed seconds
Timing for main: time 2016-02-05_12:05:40 on domain   4:     .20454 elapsed seconds
Timing for main: time 2016-02-05_12:06:00 on domain   4:     .18581 elapsed seconds
Timing for main: time 2016-02-05_12:06:00 on domain   2:    1.58481 elapsed seconds
Timing for main: time 2016-02-05_12:06:00 on domain   1:    5.13342 elapsed seconds
Timing for main: time 2016-02-05_12:06:13 on domain   3:     .16173 elapsed seconds
Timing for main: time 2016-02-05_12:06:26 on domain   3:     .15696 elapsed seconds
Timing for main: time 2016-02-05_12:06:40 on domain   3:     .15637 elapsed seconds
Timing for main: time 2016-02-05_12:06:20 on domain   4:     .20328 elapsed seconds
Timing for main: time 2016-02-05_12:06:40 on domain   4:     .18724 elapsed seconds
Timing for main: time 2016-02-05_12:06:40 on domain   2:    1.58921 elapsed seconds
Timing for main: time 2016-02-05_12:06:53 on domain   3:     .16175 elapsed seconds
Timing for main: time 2016-02-05_12:07:06 on domain   3:     .15610 elapsed seconds
Timing for main: time 2016-02-05_12:07:20 on domain   3:     .15676 elapsed seconds
Timing for main: time 2016-02-05_12:07:00 on domain   4:     .20431 elapsed seconds
Timing for main: time 2016-02-05_12:07:20 on domain   4:     .19115 elapsed seconds
Timing for main: time 2016-02-05_12:07:20 on domain   2:    1.58956 elapsed seconds
Timing for main: time 2016-02-05_12:07:33 on domain   3:     .16231 elapsed seconds
Timing for main: time 2016-02-05_12:07:46 on domain   3:     .15632 elapsed seconds
Timing for main: time 2016-02-05_12:08:00 on domain   3:     .15622 elapsed seconds
Timing for main: time 2016-02-05_12:07:40 on domain   4:     .20692 elapsed seconds
Timing for main: time 2016-02-05_12:08:00 on domain   4:     .18520 elapsed seconds
Timing for main: time 2016-02-05_12:08:00 on domain   2:    1.59064 elapsed seconds
Timing for main: time 2016-02-05_12:08:00 on domain   1:    5.12152 elapsed seconds
Timing for main: time 2016-02-05_12:08:13 on domain   3:     .16176 elapsed seconds
Timing for main: time 2016-02-05_12:08:26 on domain   3:     .15656 elapsed seconds
Timing for main: time 2016-02-05_12:08:40 on domain   3:     .15683 elapsed seconds
Timing for main: time 2016-02-05_12:08:20 on domain   4:     .20398 elapsed seconds
Timing for main: time 2016-02-05_12:08:40 on domain   4:     .18619 elapsed seconds
Timing for main: time 2016-02-05_12:08:40 on domain   2:    1.58644 elapsed seconds
Timing for main: time 2016-02-05_12:08:53 on domain   3:     .16173 elapsed seconds
Timing for main: time 2016-02-05_12:09:06 on domain   3:     .15494 elapsed seconds
Timing for main: time 2016-02-05_12:09:20 on domain   3:     .16025 elapsed seconds
Timing for main: time 2016-02-05_12:09:00 on domain   4:     .20392 elapsed seconds
Timing for main: time 2016-02-05_12:09:20 on domain   4:     .18749 elapsed seconds
Timing for main: time 2016-02-05_12:09:20 on domain   2:    1.58958 elapsed seconds
Timing for main: time 2016-02-05_12:09:33 on domain   3:     .16190 elapsed seconds
Timing for main: time 2016-02-05_12:09:46 on domain   3:     .15316 elapsed seconds
Timing for main: time 2016-02-05_12:10:00 on domain   3:     .17774 elapsed seconds
Timing for main: time 2016-02-05_12:09:40 on domain   4:     .20493 elapsed seconds
Timing for main: time 2016-02-05_12:10:00 on domain   4:     .19594 elapsed seconds
Timing for main: time 2016-02-05_12:10:00 on domain   2:    1.61837 elapsed seconds
Timing for main: time 2016-02-05_12:10:00 on domain   1:    5.14492 elapsed seconds
Timing for main: time 2016-02-05_12:10:13 on domain   3:     .16787 elapsed seconds
Timing for main: time 2016-02-05_12:10:26 on domain   3:     .15630 elapsed seconds
Timing for main: time 2016-02-05_12:10:40 on domain   3:     .15733 elapsed seconds
Timing for main: time 2016-02-05_12:10:20 on domain   4:     .20328 elapsed seconds
Timing for main: time 2016-02-05_12:10:40 on domain   4:     .18810 elapsed seconds
Timing for main: time 2016-02-05_12:10:40 on domain   2:    1.59942 elapsed seconds
Timing for main: time 2016-02-05_12:10:53 on domain   3:     .16210 elapsed seconds
Timing for main: time 2016-02-05_12:11:06 on domain   3:     .15626 elapsed seconds
Timing for main: time 2016-02-05_12:11:20 on domain   3:     .15638 elapsed seconds
Timing for main: time 2016-02-05_12:11:00 on domain   4:     .20368 elapsed seconds
Timing for main: time 2016-02-05_12:11:20 on domain   4:     .18730 elapsed seconds
Timing for main: time 2016-02-05_12:11:20 on domain   2:    1.58692 elapsed seconds
Timing for main: time 2016-02-05_12:11:33 on domain   3:     .16150 elapsed seconds
Timing for main: time 2016-02-05_12:11:46 on domain   3:     .15668 elapsed seconds
Timing for main: time 2016-02-05_12:12:00 on domain   3:     .15664 elapsed seconds
Timing for main: time 2016-02-05_12:11:40 on domain   4:     .20310 elapsed seconds
Timing for main: time 2016-02-05_12:12:00 on domain   4:     .18766 elapsed seconds
Timing for main: time 2016-02-05_12:12:00 on domain   2:    1.58393 elapsed seconds
Timing for main: time 2016-02-05_12:12:00 on domain   1:    5.12373 elapsed seconds
Timing for main: time 2016-02-05_12:12:13 on domain   3:     .16163 elapsed seconds
Timing for main: time 2016-02-05_12:12:26 on domain   3:     .15628 elapsed seconds
Timing for main: time 2016-02-05_12:12:40 on domain   3:     .15646 elapsed seconds
Timing for main: time 2016-02-05_12:12:20 on domain   4:     .21536 elapsed seconds
Timing for main: time 2016-02-05_12:12:40 on domain   4:     .18627 elapsed seconds
Timing for main: time 2016-02-05_12:12:40 on domain   2:    1.59583 elapsed seconds
Timing for main: time 2016-02-05_12:12:53 on domain   3:     .16180 elapsed seconds
Timing for main: time 2016-02-05_12:13:06 on domain   3:     .15689 elapsed seconds
Timing for main: time 2016-02-05_12:13:20 on domain   3:     .15619 elapsed seconds
Timing for main: time 2016-02-05_12:13:00 on domain   4:     .20420 elapsed seconds
Timing for main: time 2016-02-05_12:13:20 on domain   4:     .18686 elapsed seconds
Timing for main: time 2016-02-05_12:13:20 on domain   2:    1.58697 elapsed seconds
Timing for main: time 2016-02-05_12:13:33 on domain   3:     .16222 elapsed seconds
Timing for main: time 2016-02-05_12:13:46 on domain   3:     .15652 elapsed seconds
Timing for main: time 2016-02-05_12:14:00 on domain   3:     .15647 elapsed seconds
Timing for main: time 2016-02-05_12:13:40 on domain   4:     .20383 elapsed seconds
Timing for main: time 2016-02-05_12:14:00 on domain   4:     .18844 elapsed seconds
Timing for main: time 2016-02-05_12:14:00 on domain   2:    1.60278 elapsed seconds
Timing for main: time 2016-02-05_12:14:00 on domain   1:    5.13664 elapsed seconds
Timing for main: time 2016-02-05_12:14:13 on domain   3:     .16179 elapsed seconds
Timing for main: time 2016-02-05_12:14:26 on domain   3:     .15653 elapsed seconds
Timing for main: time 2016-02-05_12:14:40 on domain   3:     .15619 elapsed seconds
Timing for main: time 2016-02-05_12:14:20 on domain   4:     .20200 elapsed seconds
Timing for main: time 2016-02-05_12:14:40 on domain   4:     .18663 elapsed seconds
Timing for main: time 2016-02-05_12:14:40 on domain   2:    1.58372 elapsed seconds
Timing for main: time 2016-02-05_12:14:53 on domain   3:     .16209 elapsed seconds
Timing for main: time 2016-02-05_12:15:06 on domain   3:     .15634 elapsed seconds
Timing for main: time 2016-02-05_12:15:20 on domain   3:     .16210 elapsed seconds
Timing for main: time 2016-02-05_12:15:00 on domain   4:     .20961 elapsed seconds
Timing for main: time 2016-02-05_12:15:20 on domain   4:     .18992 elapsed seconds
Timing for main: time 2016-02-05_12:15:20 on domain   2:    1.60467 elapsed seconds
Timing for main: time 2016-02-05_12:15:33 on domain   3:     .16143 elapsed seconds
Timing for main: time 2016-02-05_12:15:46 on domain   3:     .15743 elapsed seconds
Timing for main: time 2016-02-05_12:16:00 on domain   3:     .15628 elapsed seconds
Timing for main: time 2016-02-05_12:15:40 on domain   4:     .20389 elapsed seconds
Timing for main: time 2016-02-05_12:16:00 on domain   4:     .18798 elapsed seconds
Timing for main: time 2016-02-05_12:16:00 on domain   2:    1.59484 elapsed seconds
Timing for main: time 2016-02-05_12:16:00 on domain   1:    5.13365 elapsed seconds
Timing for main: time 2016-02-05_12:16:13 on domain   3:     .16152 elapsed seconds
Timing for main: time 2016-02-05_12:16:26 on domain   3:     .15652 elapsed seconds
Timing for main: time 2016-02-05_12:16:40 on domain   3:     .15671 elapsed seconds
Timing for main: time 2016-02-05_12:16:20 on domain   4:     .20458 elapsed seconds
Timing for main: time 2016-02-05_12:16:40 on domain   4:     .19303 elapsed seconds
Timing for main: time 2016-02-05_12:16:40 on domain   2:    1.59341 elapsed seconds
Timing for main: time 2016-02-05_12:16:53 on domain   3:     .16140 elapsed seconds
Timing for main: time 2016-02-05_12:17:06 on domain   3:     .15606 elapsed seconds
Timing for main: time 2016-02-05_12:17:20 on domain   3:     .15650 elapsed seconds
Timing for main: time 2016-02-05_12:17:00 on domain   4:     .20399 elapsed seconds
Timing for main: time 2016-02-05_12:17:20 on domain   4:     .18868 elapsed seconds
Timing for main: time 2016-02-05_12:17:20 on domain   2:    1.58863 elapsed seconds
Timing for main: time 2016-02-05_12:17:33 on domain   3:     .16211 elapsed seconds
Timing for main: time 2016-02-05_12:17:46 on domain   3:     .15613 elapsed seconds
Timing for main: time 2016-02-05_12:18:00 on domain   3:     .15669 elapsed seconds
Timing for main: time 2016-02-05_12:17:40 on domain   4:     .20516 elapsed seconds
Timing for main: time 2016-02-05_12:18:00 on domain   4:     .18629 elapsed seconds
Timing for main: time 2016-02-05_12:18:00 on domain   2:    1.58946 elapsed seconds
Timing for main: time 2016-02-05_12:18:00 on domain   1:    5.12840 elapsed seconds
Timing for main: time 2016-02-05_12:18:13 on domain   3:     .16132 elapsed seconds
Timing for main: time 2016-02-05_12:18:26 on domain   3:     .15592 elapsed seconds
Timing for main: time 2016-02-05_12:18:40 on domain   3:     .15704 elapsed seconds
Timing for main: time 2016-02-05_12:18:20 on domain   4:     .20357 elapsed seconds
Timing for main: time 2016-02-05_12:18:40 on domain   4:     .18685 elapsed seconds
Timing for main: time 2016-02-05_12:18:40 on domain   2:    1.58608 elapsed seconds
Timing for main: time 2016-02-05_12:18:53 on domain   3:     .20721 elapsed seconds
Timing for main: time 2016-02-05_12:19:06 on domain   3:     .17425 elapsed seconds
Timing for main: time 2016-02-05_12:19:20 on domain   3:     .15679 elapsed seconds
Timing for main: time 2016-02-05_12:19:00 on domain   4:     .20359 elapsed seconds
Timing for main: time 2016-02-05_12:19:20 on domain   4:     .18756 elapsed seconds
Timing for main: time 2016-02-05_12:19:20 on domain   2:    1.65193 elapsed seconds
Timing for main: time 2016-02-05_12:19:33 on domain   3:     .16069 elapsed seconds
Timing for main: time 2016-02-05_12:19:46 on domain   3:     .15645 elapsed seconds
Timing for main: time 2016-02-05_12:20:00 on domain   3:     .15689 elapsed seconds
Timing for main: time 2016-02-05_12:19:40 on domain   4:     .20556 elapsed seconds
Timing for main: time 2016-02-05_12:20:00 on domain   4:     .19595 elapsed seconds
Timing for main: time 2016-02-05_12:20:00 on domain   2:    1.59835 elapsed seconds
Timing for main: time 2016-02-05_12:20:00 on domain   1:    5.18680 elapsed seconds
Timing for main: time 2016-02-05_12:20:13 on domain   3:     .16118 elapsed seconds
Timing for main: time 2016-02-05_12:20:26 on domain   3:     .16214 elapsed seconds
Timing for main: time 2016-02-05_12:20:40 on domain   3:     .15645 elapsed seconds
Timing for main: time 2016-02-05_12:20:20 on domain   4:     .20796 elapsed seconds
Timing for main: time 2016-02-05_12:20:40 on domain   4:     .18926 elapsed seconds
Timing for main: time 2016-02-05_12:20:40 on domain   2:    1.59746 elapsed seconds
Timing for main: time 2016-02-05_12:20:53 on domain   3:     .16143 elapsed seconds
Timing for main: time 2016-02-05_12:21:06 on domain   3:     .15619 elapsed seconds
Timing for main: time 2016-02-05_12:21:20 on domain   3:     .15645 elapsed seconds
Timing for main: time 2016-02-05_12:21:00 on domain   4:     .20363 elapsed seconds
Timing for main: time 2016-02-05_12:21:20 on domain   4:     .18855 elapsed seconds
Timing for main: time 2016-02-05_12:21:20 on domain   2:    1.59315 elapsed seconds
Timing for main: time 2016-02-05_12:21:33 on domain   3:     .16287 elapsed seconds
Timing for main: time 2016-02-05_12:21:46 on domain   3:     .15685 elapsed seconds
Timing for main: time 2016-02-05_12:22:00 on domain   3:     .15538 elapsed seconds
Timing for main: time 2016-02-05_12:21:40 on domain   4:     .20359 elapsed seconds
Timing for main: time 2016-02-05_12:22:00 on domain   4:     .18860 elapsed seconds
Timing for main: time 2016-02-05_12:22:00 on domain   2:    1.59136 elapsed seconds
Timing for main: time 2016-02-05_12:22:00 on domain   1:    5.13355 elapsed seconds
Timing for main: time 2016-02-05_12:22:13 on domain   3:     .16242 elapsed seconds
Timing for main: time 2016-02-05_12:22:26 on domain   3:     .15573 elapsed seconds
Timing for main: time 2016-02-05_12:22:40 on domain   3:     .15654 elapsed seconds
Timing for main: time 2016-02-05_12:22:20 on domain   4:     .20397 elapsed seconds
Timing for main: time 2016-02-05_12:22:40 on domain   4:     .18805 elapsed seconds
Timing for main: time 2016-02-05_12:22:40 on domain   2:    1.58529 elapsed seconds
Timing for main: time 2016-02-05_12:22:53 on domain   3:     .16183 elapsed seconds
Timing for main: time 2016-02-05_12:23:06 on domain   3:     .15484 elapsed seconds
Timing for main: time 2016-02-05_12:23:20 on domain   3:     .15648 elapsed seconds
Timing for main: time 2016-02-05_12:23:00 on domain   4:     .20464 elapsed seconds
Timing for main: time 2016-02-05_12:23:20 on domain   4:     .18653 elapsed seconds
Timing for main: time 2016-02-05_12:23:20 on domain   2:    1.58320 elapsed seconds
Timing for main: time 2016-02-05_12:23:33 on domain   3:     .16163 elapsed seconds
Timing for main: time 2016-02-05_12:23:46 on domain   3:     .15672 elapsed seconds
Timing for main: time 2016-02-05_12:24:00 on domain   3:     .15734 elapsed seconds
Timing for main: time 2016-02-05_12:23:40 on domain   4:     .20441 elapsed seconds
Timing for main: time 2016-02-05_12:24:00 on domain   4:     .18861 elapsed seconds
Timing for main: time 2016-02-05_12:24:00 on domain   2:    1.58822 elapsed seconds
Timing for main: time 2016-02-05_12:24:00 on domain   1:    5.11212 elapsed seconds
Timing for main: time 2016-02-05_12:24:13 on domain   3:     .16122 elapsed seconds
Timing for main: time 2016-02-05_12:24:26 on domain   3:     .15574 elapsed seconds
Timing for main: time 2016-02-05_12:24:40 on domain   3:     .15665 elapsed seconds
Timing for main: time 2016-02-05_12:24:20 on domain   4:     .20470 elapsed seconds
Timing for main: time 2016-02-05_12:24:40 on domain   4:     .18785 elapsed seconds
Timing for main: time 2016-02-05_12:24:40 on domain   2:    1.58635 elapsed seconds
Timing for main: time 2016-02-05_12:24:53 on domain   3:     .16153 elapsed seconds
Timing for main: time 2016-02-05_12:25:06 on domain   3:     .15609 elapsed seconds
Timing for main: time 2016-02-05_12:25:20 on domain   3:     .16028 elapsed seconds
Timing for main: time 2016-02-05_12:25:00 on domain   4:     .21166 elapsed seconds
Timing for main: time 2016-02-05_12:25:20 on domain   4:     .18714 elapsed seconds
Timing for main: time 2016-02-05_12:25:20 on domain   2:    1.62677 elapsed seconds
Timing for main: time 2016-02-05_12:25:33 on domain   3:     .16796 elapsed seconds
Timing for main: time 2016-02-05_12:25:46 on domain   3:     .15597 elapsed seconds
Timing for main: time 2016-02-05_12:26:00 on domain   3:     .15739 elapsed seconds
Timing for main: time 2016-02-05_12:25:40 on domain   4:     .20429 elapsed seconds
Timing for main: time 2016-02-05_12:26:00 on domain   4:     .18794 elapsed seconds
Timing for main: time 2016-02-05_12:26:00 on domain   2:    1.59259 elapsed seconds
Timing for main: time 2016-02-05_12:26:00 on domain   1:    5.15592 elapsed seconds
Timing for main: time 2016-02-05_12:26:13 on domain   3:     .16166 elapsed seconds
Timing for main: time 2016-02-05_12:26:26 on domain   3:     .15599 elapsed seconds
Timing for main: time 2016-02-05_12:26:40 on domain   3:     .15581 elapsed seconds
Timing for main: time 2016-02-05_12:26:20 on domain   4:     .22957 elapsed seconds
Timing for main: time 2016-02-05_12:26:40 on domain   4:     .22298 elapsed seconds
Timing for main: time 2016-02-05_12:26:40 on domain   2:    1.65473 elapsed seconds
Timing for main: time 2016-02-05_12:26:53 on domain   3:     .16141 elapsed seconds
Timing for main: time 2016-02-05_12:27:06 on domain   3:     .15683 elapsed seconds
Timing for main: time 2016-02-05_12:27:20 on domain   3:     .15577 elapsed seconds
Timing for main: time 2016-02-05_12:27:00 on domain   4:     .20511 elapsed seconds
Timing for main: time 2016-02-05_12:27:20 on domain   4:     .18720 elapsed seconds
Timing for main: time 2016-02-05_12:27:20 on domain   2:    1.58750 elapsed seconds
Timing for main: time 2016-02-05_12:27:33 on domain   3:     .16176 elapsed seconds
Timing for main: time 2016-02-05_12:27:46 on domain   3:     .15637 elapsed seconds
Timing for main: time 2016-02-05_12:28:00 on domain   3:     .15608 elapsed seconds
Timing for main: time 2016-02-05_12:27:40 on domain   4:     .20417 elapsed seconds
Timing for main: time 2016-02-05_12:28:00 on domain   4:     .18853 elapsed seconds
Timing for main: time 2016-02-05_12:28:00 on domain   2:    1.58837 elapsed seconds
Timing for main: time 2016-02-05_12:28:00 on domain   1:    5.18156 elapsed seconds
  photolysis_driver: called for domain  1
Timing for main: time 2016-02-05_12:28:13 on domain   3:     .16218 elapsed seconds
Timing for main: time 2016-02-05_12:28:26 on domain   3:     .15658 elapsed seconds
Timing for main: time 2016-02-05_12:28:40 on domain   3:     .15576 elapsed seconds
Timing for main: time 2016-02-05_12:28:20 on domain   4:     .20428 elapsed seconds
Timing for main: time 2016-02-05_12:28:40 on domain   4:     .18771 elapsed seconds
Timing for main: time 2016-02-05_12:28:40 on domain   2:    1.58922 elapsed seconds
Timing for main: time 2016-02-05_12:28:53 on domain   3:     .16266 elapsed seconds
Timing for main: time 2016-02-05_12:29:06 on domain   3:     .15612 elapsed seconds
Timing for main: time 2016-02-05_12:29:20 on domain   3:     .15639 elapsed seconds
Timing for main: time 2016-02-05_12:29:00 on domain   4:     .20396 elapsed seconds
Timing for main: time 2016-02-05_12:29:20 on domain   4:     .19010 elapsed seconds
Timing for main: time 2016-02-05_12:29:20 on domain   2:    1.58962 elapsed seconds
  photolysis_driver: called for domain  2
Timing for main: time 2016-02-05_12:29:33 on domain   3:     .16216 elapsed seconds
Timing for main: time 2016-02-05_12:29:46 on domain   3:     .15493 elapsed seconds
  photolysis_driver: called for domain  3
Timing for main: time 2016-02-05_12:30:00 on domain   3:     .67989 elapsed seconds
Timing for main: time 2016-02-05_12:29:40 on domain   4:     .20449 elapsed seconds
  photolysis_driver: called for domain  4
Timing for main: time 2016-02-05_12:30:00 on domain   4:     .80510 elapsed seconds
Timing for main: time 2016-02-05_12:30:00 on domain   2:    3.50999 elapsed seconds
Timing for main: time 2016-02-05_12:30:00 on domain   1:    7.43597 elapsed seconds
Timing for main: time 2016-02-05_12:30:13 on domain   3:     .27429 elapsed seconds
Timing for main: time 2016-02-05_12:30:26 on domain   3:     .15670 elapsed seconds
Timing for main: time 2016-02-05_12:30:40 on domain   3:     .16009 elapsed seconds
Timing for main: time 2016-02-05_12:30:20 on domain   4:     .33607 elapsed seconds
Timing for main: time 2016-02-05_12:30:40 on domain   4:     .18768 elapsed seconds
Timing for main: time 2016-02-05_12:30:40 on domain   2:    1.98320 elapsed seconds
Timing for main: time 2016-02-05_12:30:53 on domain   3:     .16081 elapsed seconds
Timing for main: time 2016-02-05_12:31:06 on domain   3:     .15652 elapsed seconds
Timing for main: time 2016-02-05_12:31:20 on domain   3:     .15540 elapsed seconds
Timing for main: time 2016-02-05_12:31:00 on domain   4:     .20283 elapsed seconds
Timing for main: time 2016-02-05_12:31:20 on domain   4:     .18858 elapsed seconds
Timing for main: time 2016-02-05_12:31:20 on domain   2:    1.58649 elapsed seconds
Timing for main: time 2016-02-05_12:31:33 on domain   3:     .16100 elapsed seconds
Timing for main: time 2016-02-05_12:31:46 on domain   3:     .15537 elapsed seconds
Timing for main: time 2016-02-05_12:32:00 on domain   3:     .15605 elapsed seconds
Timing for main: time 2016-02-05_12:31:40 on domain   4:     .20354 elapsed seconds
Timing for main: time 2016-02-05_12:32:00 on domain   4:     .18665 elapsed seconds
Timing for main: time 2016-02-05_12:32:00 on domain   2:    1.58891 elapsed seconds
Timing for main: time 2016-02-05_12:32:00 on domain   1:    5.62198 elapsed seconds
Timing for main: time 2016-02-05_12:32:13 on domain   3:     .16175 elapsed seconds
Timing for main: time 2016-02-05_12:32:26 on domain   3:     .15528 elapsed seconds
Timing for main: time 2016-02-05_12:32:40 on domain   3:     .15588 elapsed seconds
Timing for main: time 2016-02-05_12:32:20 on domain   4:     .20398 elapsed seconds
Timing for main: time 2016-02-05_12:32:40 on domain   4:     .18674 elapsed seconds
Timing for main: time 2016-02-05_12:32:40 on domain   2:    1.58423 elapsed seconds
Timing for main: time 2016-02-05_12:32:53 on domain   3:     .16066 elapsed seconds
Timing for main: time 2016-02-05_12:33:06 on domain   3:     .15615 elapsed seconds
Timing for main: time 2016-02-05_12:33:20 on domain   3:     .15603 elapsed seconds
Timing for main: time 2016-02-05_12:33:00 on domain   4:     .20367 elapsed seconds
Timing for main: time 2016-02-05_12:33:20 on domain   4:     .18611 elapsed seconds
Timing for main: time 2016-02-05_12:33:20 on domain   2:    1.58327 elapsed seconds
Timing for main: time 2016-02-05_12:33:33 on domain   3:     .16133 elapsed seconds
Timing for main: time 2016-02-05_12:33:46 on domain   3:     .15624 elapsed seconds
Timing for main: time 2016-02-05_12:34:00 on domain   3:     .15615 elapsed seconds
Timing for main: time 2016-02-05_12:33:40 on domain   4:     .20399 elapsed seconds
Timing for main: time 2016-02-05_12:34:00 on domain   4:     .18807 elapsed seconds
Timing for main: time 2016-02-05_12:34:00 on domain   2:    1.58618 elapsed seconds
Timing for main: time 2016-02-05_12:34:00 on domain   1:    5.10490 elapsed seconds
Timing for main: time 2016-02-05_12:34:13 on domain   3:     .15985 elapsed seconds
Timing for main: time 2016-02-05_12:34:26 on domain   3:     .15723 elapsed seconds
Timing for main: time 2016-02-05_12:34:40 on domain   3:     .15615 elapsed seconds
Timing for main: time 2016-02-05_12:34:20 on domain   4:     .20337 elapsed seconds
Timing for main: time 2016-02-05_12:34:40 on domain   4:     .18695 elapsed seconds
Timing for main: time 2016-02-05_12:34:40 on domain   2:    1.58322 elapsed seconds
Timing for main: time 2016-02-05_12:34:53 on domain   3:     .16463 elapsed seconds
Timing for main: time 2016-02-05_12:35:06 on domain   3:     .15521 elapsed seconds
Timing for main: time 2016-02-05_12:35:20 on domain   3:     .15672 elapsed seconds
Timing for main: time 2016-02-05_12:35:00 on domain   4:     .21114 elapsed seconds
Timing for main: time 2016-02-05_12:35:20 on domain   4:     .18732 elapsed seconds
Timing for main: time 2016-02-05_12:35:20 on domain   2:    1.59682 elapsed seconds
Timing for main: time 2016-02-05_12:35:33 on domain   3:     .16148 elapsed seconds
Timing for main: time 2016-02-05_12:35:46 on domain   3:     .16006 elapsed seconds
Timing for main: time 2016-02-05_12:36:00 on domain   3:     .15615 elapsed seconds
Timing for main: time 2016-02-05_12:35:40 on domain   4:     .20319 elapsed seconds
Timing for main: time 2016-02-05_12:36:00 on domain   4:     .18767 elapsed seconds
Timing for main: time 2016-02-05_12:36:00 on domain   2:    1.58928 elapsed seconds
Timing for main: time 2016-02-05_12:36:00 on domain   1:    5.12517 elapsed seconds
Timing for main: time 2016-02-05_12:36:13 on domain   3:     .16056 elapsed seconds
Timing for main: time 2016-02-05_12:36:26 on domain   3:     .15730 elapsed seconds
Timing for main: time 2016-02-05_12:36:40 on domain   3:     .15584 elapsed seconds
Timing for main: time 2016-02-05_12:36:20 on domain   4:     .20364 elapsed seconds
Timing for main: time 2016-02-05_12:36:40 on domain   4:     .18708 elapsed seconds
Timing for main: time 2016-02-05_12:36:40 on domain   2:    1.58539 elapsed seconds
Timing for main: time 2016-02-05_12:36:53 on domain   3:     .16038 elapsed seconds
Timing for main: time 2016-02-05_12:37:06 on domain   3:     .15633 elapsed seconds
Timing for main: time 2016-02-05_12:37:20 on domain   3:     .15586 elapsed seconds
Timing for main: time 2016-02-05_12:37:00 on domain   4:     .22538 elapsed seconds
Timing for main: time 2016-02-05_12:37:20 on domain   4:     .18688 elapsed seconds
Timing for main: time 2016-02-05_12:37:20 on domain   2:    1.62272 elapsed seconds
Timing for main: time 2016-02-05_12:37:33 on domain   3:     .16119 elapsed seconds
Timing for main: time 2016-02-05_12:37:46 on domain   3:     .15568 elapsed seconds
Timing for main: time 2016-02-05_12:38:00 on domain   3:     .15508 elapsed seconds
Timing for main: time 2016-02-05_12:37:40 on domain   4:     .20383 elapsed seconds
Timing for main: time 2016-02-05_12:38:00 on domain   4:     .18745 elapsed seconds
Timing for main: time 2016-02-05_12:38:00 on domain   2:    1.58228 elapsed seconds
Timing for main: time 2016-02-05_12:38:00 on domain   1:    5.14156 elapsed seconds
Timing for main: time 2016-02-05_12:38:13 on domain   3:     .16075 elapsed seconds
Timing for main: time 2016-02-05_12:38:26 on domain   3:     .15631 elapsed seconds
Timing for main: time 2016-02-05_12:38:40 on domain   3:     .15538 elapsed seconds
Timing for main: time 2016-02-05_12:38:20 on domain   4:     .20337 elapsed seconds
Timing for main: time 2016-02-05_12:38:40 on domain   4:     .18782 elapsed seconds
Timing for main: time 2016-02-05_12:38:40 on domain   2:    1.58462 elapsed seconds
Timing for main: time 2016-02-05_12:38:53 on domain   3:     .16109 elapsed seconds
Timing for main: time 2016-02-05_12:39:06 on domain   3:     .15619 elapsed seconds
Timing for main: time 2016-02-05_12:39:20 on domain   3:     .15979 elapsed seconds
Timing for main: time 2016-02-05_12:39:00 on domain   4:     .20392 elapsed seconds
Timing for main: time 2016-02-05_12:39:20 on domain   4:     .18670 elapsed seconds
Timing for main: time 2016-02-05_12:39:20 on domain   2:    1.60233 elapsed seconds
Timing for main: time 2016-02-05_12:39:33 on domain   3:     .16138 elapsed seconds
Timing for main: time 2016-02-05_12:39:46 on domain   3:     .15578 elapsed seconds
Timing for main: time 2016-02-05_12:40:00 on domain   3:     .15152 elapsed seconds
Timing for main: time 2016-02-05_12:39:40 on domain   4:     .20385 elapsed seconds
Timing for main: time 2016-02-05_12:40:00 on domain   4:     .19513 elapsed seconds
Timing for main: time 2016-02-05_12:40:00 on domain   2:    1.58993 elapsed seconds
Timing for main: time 2016-02-05_12:40:00 on domain   1:    5.12666 elapsed seconds
Timing for main: time 2016-02-05_12:40:13 on domain   3:     .16118 elapsed seconds
Timing for main: time 2016-02-05_12:40:26 on domain   3:     .15589 elapsed seconds
Timing for main: time 2016-02-05_12:40:40 on domain   3:     .15533 elapsed seconds
Timing for main: time 2016-02-05_12:40:20 on domain   4:     .20258 elapsed seconds
Timing for main: time 2016-02-05_12:40:40 on domain   4:     .18742 elapsed seconds
Timing for main: time 2016-02-05_12:40:40 on domain   2:    1.58460 elapsed seconds
Timing for main: time 2016-02-05_12:40:53 on domain   3:     .16667 elapsed seconds
Timing for main: time 2016-02-05_12:41:06 on domain   3:     .15513 elapsed seconds
Timing for main: time 2016-02-05_12:41:20 on domain   3:     .15575 elapsed seconds
Timing for main: time 2016-02-05_12:41:00 on domain   4:     .20409 elapsed seconds
Timing for main: time 2016-02-05_12:41:20 on domain   4:     .18802 elapsed seconds
Timing for main: time 2016-02-05_12:41:20 on domain   2:    1.59003 elapsed seconds
Timing for main: time 2016-02-05_12:41:33 on domain   3:     .16094 elapsed seconds
Timing for main: time 2016-02-05_12:41:46 on domain   3:     .15496 elapsed seconds
Timing for main: time 2016-02-05_12:42:00 on domain   3:     .15566 elapsed seconds
Timing for main: time 2016-02-05_12:41:40 on domain   4:     .20349 elapsed seconds
Timing for main: time 2016-02-05_12:42:00 on domain   4:     .18739 elapsed seconds
Timing for main: time 2016-02-05_12:42:00 on domain   2:    1.58107 elapsed seconds
Timing for main: time 2016-02-05_12:42:00 on domain   1:    5.11017 elapsed seconds
Timing for main: time 2016-02-05_12:42:13 on domain   3:     .16169 elapsed seconds
Timing for main: time 2016-02-05_12:42:26 on domain   3:     .15542 elapsed seconds
Timing for main: time 2016-02-05_12:42:40 on domain   3:     .15639 elapsed seconds
Timing for main: time 2016-02-05_12:42:20 on domain   4:     .20358 elapsed seconds
Timing for main: time 2016-02-05_12:42:40 on domain   4:     .18793 elapsed seconds
Timing for main: time 2016-02-05_12:42:40 on domain   2:    1.62310 elapsed seconds
Timing for main: time 2016-02-05_12:42:53 on domain   3:     .16129 elapsed seconds
Timing for main: time 2016-02-05_12:43:06 on domain   3:     .15710 elapsed seconds
Timing for main: time 2016-02-05_12:43:20 on domain   3:     .15546 elapsed seconds
Timing for main: time 2016-02-05_12:43:00 on domain   4:     .20395 elapsed seconds
Timing for main: time 2016-02-05_12:43:20 on domain   4:     .18722 elapsed seconds
Timing for main: time 2016-02-05_12:43:20 on domain   2:    1.58566 elapsed seconds
Timing for main: time 2016-02-05_12:43:33 on domain   3:     .16051 elapsed seconds
Timing for main: time 2016-02-05_12:43:46 on domain   3:     .15578 elapsed seconds
Timing for main: time 2016-02-05_12:44:00 on domain   3:     .15456 elapsed seconds
Timing for main: time 2016-02-05_12:43:40 on domain   4:     .20445 elapsed seconds
Timing for main: time 2016-02-05_12:44:00 on domain   4:     .18900 elapsed seconds
Timing for main: time 2016-02-05_12:44:00 on domain   2:    1.60248 elapsed seconds
Timing for main: time 2016-02-05_12:44:00 on domain   1:    5.17696 elapsed seconds
Timing for main: time 2016-02-05_12:44:13 on domain   3:     .16142 elapsed seconds
Timing for main: time 2016-02-05_12:44:26 on domain   3:     .15571 elapsed seconds
Timing for main: time 2016-02-05_12:44:40 on domain   3:     .15589 elapsed seconds
Timing for main: time 2016-02-05_12:44:20 on domain   4:     .20315 elapsed seconds
Timing for main: time 2016-02-05_12:44:40 on domain   4:     .18692 elapsed seconds
Timing for main: time 2016-02-05_12:44:40 on domain   2:    1.58457 elapsed seconds
Timing for main: time 2016-02-05_12:44:53 on domain   3:     .16126 elapsed seconds
Timing for main: time 2016-02-05_12:45:06 on domain   3:     .15531 elapsed seconds
Timing for main: time 2016-02-05_12:45:20 on domain   3:     .18173 elapsed seconds
Timing for main: time 2016-02-05_12:45:00 on domain   4:     .21114 elapsed seconds
Timing for main: time 2016-02-05_12:45:20 on domain   4:     .18656 elapsed seconds
Timing for main: time 2016-02-05_12:45:20 on domain   2:    1.61990 elapsed seconds
Timing for main: time 2016-02-05_12:45:33 on domain   3:     .16199 elapsed seconds
Timing for main: time 2016-02-05_12:45:46 on domain   3:     .15719 elapsed seconds
Timing for main: time 2016-02-05_12:46:00 on domain   3:     .16337 elapsed seconds
Timing for main: time 2016-02-05_12:45:40 on domain   4:     .20419 elapsed seconds
Timing for main: time 2016-02-05_12:46:00 on domain   4:     .18780 elapsed seconds
Timing for main: time 2016-02-05_12:46:00 on domain   2:    1.59274 elapsed seconds
Timing for main: time 2016-02-05_12:46:00 on domain   1:    5.15255 elapsed seconds
Timing for main: time 2016-02-05_12:46:13 on domain   3:     .16124 elapsed seconds
Timing for main: time 2016-02-05_12:46:26 on domain   3:     .15585 elapsed seconds
Timing for main: time 2016-02-05_12:46:40 on domain   3:     .15490 elapsed seconds
Timing for main: time 2016-02-05_12:46:20 on domain   4:     .20442 elapsed seconds
Timing for main: time 2016-02-05_12:46:40 on domain   4:     .19759 elapsed seconds
Timing for main: time 2016-02-05_12:46:40 on domain   2:    1.59411 elapsed seconds
Timing for main: time 2016-02-05_12:46:53 on domain   3:     .16027 elapsed seconds
Timing for main: time 2016-02-05_12:47:06 on domain   3:     .15619 elapsed seconds
Timing for main: time 2016-02-05_12:47:20 on domain   3:     .15602 elapsed seconds
Timing for main: time 2016-02-05_12:47:00 on domain   4:     .22281 elapsed seconds
Timing for main: time 2016-02-05_12:47:20 on domain   4:     .18821 elapsed seconds
Timing for main: time 2016-02-05_12:47:20 on domain   2:    1.61381 elapsed seconds
Timing for main: time 2016-02-05_12:47:33 on domain   3:     .16115 elapsed seconds
Timing for main: time 2016-02-05_12:47:46 on domain   3:     .15536 elapsed seconds
Timing for main: time 2016-02-05_12:48:00 on domain   3:     .15571 elapsed seconds
Timing for main: time 2016-02-05_12:47:40 on domain   4:     .20365 elapsed seconds
Timing for main: time 2016-02-05_12:48:00 on domain   4:     .18753 elapsed seconds
Timing for main: time 2016-02-05_12:48:00 on domain   2:    1.58946 elapsed seconds
Timing for main: time 2016-02-05_12:48:00 on domain   1:    5.15288 elapsed seconds
Timing for main: time 2016-02-05_12:48:13 on domain   3:     .16161 elapsed seconds
Timing for main: time 2016-02-05_12:48:26 on domain   3:     .15579 elapsed seconds
Timing for main: time 2016-02-05_12:48:40 on domain   3:     .15467 elapsed seconds
Timing for main: time 2016-02-05_12:48:20 on domain   4:     .20428 elapsed seconds
Timing for main: time 2016-02-05_12:48:40 on domain   4:     .18702 elapsed seconds
Timing for main: time 2016-02-05_12:48:40 on domain   2:    1.58468 elapsed seconds
Timing for main: time 2016-02-05_12:48:53 on domain   3:     .16100 elapsed seconds
Timing for main: time 2016-02-05_12:49:06 on domain   3:     .15611 elapsed seconds
Timing for main: time 2016-02-05_12:49:20 on domain   3:     .15541 elapsed seconds
Timing for main: time 2016-02-05_12:49:00 on domain   4:     .21582 elapsed seconds
Timing for main: time 2016-02-05_12:49:20 on domain   4:     .18668 elapsed seconds
Timing for main: time 2016-02-05_12:49:20 on domain   2:    1.62997 elapsed seconds
Timing for main: time 2016-02-05_12:49:33 on domain   3:     .16255 elapsed seconds
Timing for main: time 2016-02-05_12:49:46 on domain   3:     .15554 elapsed seconds
Timing for main: time 2016-02-05_12:50:00 on domain   3:     .15603 elapsed seconds
Timing for main: time 2016-02-05_12:49:40 on domain   4:     .20258 elapsed seconds
Timing for main: time 2016-02-05_12:50:00 on domain   4:     .19422 elapsed seconds
Timing for main: time 2016-02-05_12:50:00 on domain   2:    1.59004 elapsed seconds
Timing for main: time 2016-02-05_12:50:00 on domain   1:    5.15584 elapsed seconds
Timing for main: time 2016-02-05_12:50:13 on domain   3:     .16072 elapsed seconds
Timing for main: time 2016-02-05_12:50:26 on domain   3:     .15500 elapsed seconds
Timing for main: time 2016-02-05_12:50:40 on domain   3:     .15636 elapsed seconds
Timing for main: time 2016-02-05_12:50:20 on domain   4:     .20759 elapsed seconds
Timing for main: time 2016-02-05_12:50:40 on domain   4:     .18491 elapsed seconds
Timing for main: time 2016-02-05_12:50:40 on domain   2:    1.58439 elapsed seconds
Timing for main: time 2016-02-05_12:50:53 on domain   3:     .16100 elapsed seconds
Timing for main: time 2016-02-05_12:51:06 on domain   3:     .16169 elapsed seconds
Timing for main: time 2016-02-05_12:51:20 on domain   3:     .15556 elapsed seconds
Timing for main: time 2016-02-05_12:51:00 on domain   4:     .20384 elapsed seconds
Timing for main: time 2016-02-05_12:51:20 on domain   4:     .18682 elapsed seconds
Timing for main: time 2016-02-05_12:51:20 on domain   2:    1.58765 elapsed seconds
Timing for main: time 2016-02-05_12:51:33 on domain   3:     .16226 elapsed seconds
Timing for main: time 2016-02-05_12:51:46 on domain   3:     .15679 elapsed seconds
Timing for main: time 2016-02-05_12:52:00 on domain   3:     .15553 elapsed seconds
Timing for main: time 2016-02-05_12:51:40 on domain   4:     .20325 elapsed seconds
Timing for main: time 2016-02-05_12:52:00 on domain   4:     .18865 elapsed seconds
Timing for main: time 2016-02-05_12:52:00 on domain   2:    1.58682 elapsed seconds
Timing for main: time 2016-02-05_12:52:00 on domain   1:    5.10964 elapsed seconds
Timing for main: time 2016-02-05_12:52:13 on domain   3:     .16137 elapsed seconds
Timing for main: time 2016-02-05_12:52:26 on domain   3:     .15520 elapsed seconds
Timing for main: time 2016-02-05_12:52:40 on domain   3:     .15453 elapsed seconds
Timing for main: time 2016-02-05_12:52:20 on domain   4:     .20395 elapsed seconds
Timing for main: time 2016-02-05_12:52:40 on domain   4:     .18816 elapsed seconds
Timing for main: time 2016-02-05_12:52:40 on domain   2:    1.58250 elapsed seconds
Timing for main: time 2016-02-05_12:52:53 on domain   3:     .16094 elapsed seconds
Timing for main: time 2016-02-05_12:53:06 on domain   3:     .15757 elapsed seconds
Timing for main: time 2016-02-05_12:53:20 on domain   3:     .15482 elapsed seconds
Timing for main: time 2016-02-05_12:53:00 on domain   4:     .20468 elapsed seconds
Timing for main: time 2016-02-05_12:53:20 on domain   4:     .18717 elapsed seconds
Timing for main: time 2016-02-05_12:53:20 on domain   2:    1.58879 elapsed seconds
Timing for main: time 2016-02-05_12:53:33 on domain   3:     .16128 elapsed seconds
Timing for main: time 2016-02-05_12:53:46 on domain   3:     .15586 elapsed seconds
Timing for main: time 2016-02-05_12:54:00 on domain   3:     .15509 elapsed seconds
Timing for main: time 2016-02-05_12:53:40 on domain   4:     .20816 elapsed seconds
Timing for main: time 2016-02-05_12:54:00 on domain   4:     .18784 elapsed seconds
Timing for main: time 2016-02-05_12:54:00 on domain   2:    1.58762 elapsed seconds
Timing for main: time 2016-02-05_12:54:00 on domain   1:    5.11266 elapsed seconds
Timing for main: time 2016-02-05_12:54:13 on domain   3:     .16141 elapsed seconds
Timing for main: time 2016-02-05_12:54:26 on domain   3:     .15502 elapsed seconds
Timing for main: time 2016-02-05_12:54:40 on domain   3:     .15692 elapsed seconds
Timing for main: time 2016-02-05_12:54:20 on domain   4:     .20589 elapsed seconds
Timing for main: time 2016-02-05_12:54:40 on domain   4:     .18836 elapsed seconds
Timing for main: time 2016-02-05_12:54:40 on domain   2:    1.58479 elapsed seconds
Timing for main: time 2016-02-05_12:54:53 on domain   3:     .16076 elapsed seconds
Timing for main: time 2016-02-05_12:55:06 on domain   3:     .15614 elapsed seconds
Timing for main: time 2016-02-05_12:55:20 on domain   3:     .15496 elapsed seconds
Timing for main: time 2016-02-05_12:55:00 on domain   4:     .21116 elapsed seconds
Timing for main: time 2016-02-05_12:55:20 on domain   4:     .18809 elapsed seconds
Timing for main: time 2016-02-05_12:55:20 on domain   2:    1.58976 elapsed seconds
Timing for main: time 2016-02-05_12:55:33 on domain   3:     .16121 elapsed seconds
Timing for main: time 2016-02-05_12:55:46 on domain   3:     .15553 elapsed seconds
Timing for main: time 2016-02-05_12:56:00 on domain   3:     .15344 elapsed seconds
Timing for main: time 2016-02-05_12:55:40 on domain   4:     .20430 elapsed seconds
Timing for main: time 2016-02-05_12:56:00 on domain   4:     .18733 elapsed seconds
Timing for main: time 2016-02-05_12:56:00 on domain   2:    1.58996 elapsed seconds
Timing for main: time 2016-02-05_12:56:00 on domain   1:    5.11465 elapsed seconds
Timing for main: time 2016-02-05_12:56:13 on domain   3:     .16699 elapsed seconds
Timing for main: time 2016-02-05_12:56:26 on domain   3:     .15572 elapsed seconds
Timing for main: time 2016-02-05_12:56:40 on domain   3:     .15588 elapsed seconds
Timing for main: time 2016-02-05_12:56:20 on domain   4:     .20693 elapsed seconds
Timing for main: time 2016-02-05_12:56:40 on domain   4:     .18745 elapsed seconds
Timing for main: time 2016-02-05_12:56:40 on domain   2:    1.59187 elapsed seconds
Timing for main: time 2016-02-05_12:56:53 on domain   3:     .16152 elapsed seconds
Timing for main: time 2016-02-05_12:57:06 on domain   3:     .15432 elapsed seconds
Timing for main: time 2016-02-05_12:57:20 on domain   3:     .15955 elapsed seconds
Timing for main: time 2016-02-05_12:57:00 on domain   4:     .20457 elapsed seconds
Timing for main: time 2016-02-05_12:57:20 on domain   4:     .18627 elapsed seconds
Timing for main: time 2016-02-05_12:57:20 on domain   2:    1.58449 elapsed seconds
Timing for main: time 2016-02-05_12:57:33 on domain   3:     .16050 elapsed seconds
Timing for main: time 2016-02-05_12:57:46 on domain   3:     .15577 elapsed seconds
Timing for main: time 2016-02-05_12:58:00 on domain   3:     .15450 elapsed seconds
Timing for main: time 2016-02-05_12:57:40 on domain   4:     .20273 elapsed seconds
Timing for main: time 2016-02-05_12:58:00 on domain   4:     .18803 elapsed seconds
Timing for main: time 2016-02-05_12:58:00 on domain   2:    1.58299 elapsed seconds
Timing for main: time 2016-02-05_12:58:00 on domain   1:    5.11061 elapsed seconds
  photolysis_driver: called for domain  1
Timing for main: time 2016-02-05_12:58:13 on domain   3:     .16151 elapsed seconds
Timing for main: time 2016-02-05_12:58:26 on domain   3:     .15547 elapsed seconds
Timing for main: time 2016-02-05_12:58:40 on domain   3:     .15537 elapsed seconds
Timing for main: time 2016-02-05_12:58:20 on domain   4:     .20477 elapsed seconds
Timing for main: time 2016-02-05_12:58:40 on domain   4:     .18742 elapsed seconds
Timing for main: time 2016-02-05_12:58:40 on domain   2:    1.59255 elapsed seconds
Timing for main: time 2016-02-05_12:58:53 on domain   3:     .16051 elapsed seconds
Timing for main: time 2016-02-05_12:59:06 on domain   3:     .15529 elapsed seconds
Timing for main: time 2016-02-05_12:59:20 on domain   3:     .15610 elapsed seconds
Timing for main: time 2016-02-05_12:59:00 on domain   4:     .20613 elapsed seconds
Timing for main: time 2016-02-05_12:59:20 on domain   4:     .18670 elapsed seconds
Timing for main: time 2016-02-05_12:59:20 on domain   2:    1.58188 elapsed seconds
  photolysis_driver: called for domain  2
Timing for main: time 2016-02-05_12:59:33 on domain   3:     .16159 elapsed seconds
Timing for main: time 2016-02-05_12:59:46 on domain   3:     .16042 elapsed seconds
  photolysis_driver: called for domain  3
Timing for main: time 2016-02-05_13:00:00 on domain   3:     .68094 elapsed seconds
Timing for main: time 2016-02-05_12:59:40 on domain   4:     .20725 elapsed seconds
  photolysis_driver: called for domain  4
Timing for main: time 2016-02-05_13:00:00 on domain   4:     .81216 elapsed seconds
Timing for main: time 2016-02-05_13:00:00 on domain   2:    3.42310 elapsed seconds
Timing for main: time 2016-02-05_13:00:00 on domain   1:    7.34467 elapsed seconds
Timing for Writing wrfout_d01_2016-02-05_13:00:00 for domain        1:    2.65588 elapsed seconds
  HOURLY EMISSIONS UPDATE TIME     3600.0        .0
 mediation_integrate: med_read_wrf_chem_emissions: Read emissions for time 2016-02-05_13:00:00
 **WARNING** Time in input file not being checked **WARNING**
Timing for Writing wrfout_d02_2016-02-05_13:00:00 for domain        2:    3.46981 elapsed seconds
Timing for Writing wrfout_d03_2016-02-05_13:00:00 for domain        3:    3.17734 elapsed seconds
Timing for main: time 2016-02-05_13:00:13 on domain   3:    3.50604 elapsed seconds
Timing for main: time 2016-02-05_13:00:26 on domain   3:     .15602 elapsed seconds
Timing for main: time 2016-02-05_13:00:40 on domain   3:     .15518 elapsed seconds
Timing for Writing wrfout_d04_2016-02-05_13:00:00 for domain        4:    3.35651 elapsed seconds
Timing for main: time 2016-02-05_13:00:20 on domain   4:    3.76800 elapsed seconds
Timing for main: time 2016-02-05_13:00:40 on domain   4:     .18708 elapsed seconds
Timing for main: time 2016-02-05_13:00:40 on domain   2:   12.20339 elapsed seconds
Timing for main: time 2016-02-05_13:00:53 on domain   3:     .16096 elapsed seconds
Timing for main: time 2016-02-05_13:01:06 on domain   3:     .15629 elapsed seconds
Timing for main: time 2016-02-05_13:01:20 on domain   3:     .16481 elapsed seconds
Timing for main: time 2016-02-05_13:01:00 on domain   4:     .20410 elapsed seconds
Timing for main: time 2016-02-05_13:01:20 on domain   4:     .18844 elapsed seconds
Timing for main: time 2016-02-05_13:01:20 on domain   2:    1.59246 elapsed seconds
Timing for main: time 2016-02-05_13:01:33 on domain   3:     .16134 elapsed seconds
Timing for main: time 2016-02-05_13:01:46 on domain   3:     .15617 elapsed seconds
Timing for main: time 2016-02-05_13:02:00 on domain   3:     .15548 elapsed seconds
Timing for main: time 2016-02-05_13:01:40 on domain   4:     .20588 elapsed seconds
Timing for main: time 2016-02-05_13:02:00 on domain   4:     .18674 elapsed seconds
Timing for main: time 2016-02-05_13:02:00 on domain   2:    1.58423 elapsed seconds
Timing for main: time 2016-02-05_13:02:00 on domain   1:   18.99105 elapsed seconds
Timing for main: time 2016-02-05_13:02:13 on domain   3:     .16141 elapsed seconds
Timing for main: time 2016-02-05_13:02:26 on domain   3:     .15714 elapsed seconds
Timing for main: time 2016-02-05_13:02:40 on domain   3:     .15565 elapsed seconds
Timing for main: time 2016-02-05_13:02:20 on domain   4:     .20467 elapsed seconds
Timing for main: time 2016-02-05_13:02:40 on domain   4:     .18707 elapsed seconds
Timing for main: time 2016-02-05_13:02:40 on domain   2:    1.58503 elapsed seconds
Timing for main: time 2016-02-05_13:02:53 on domain   3:     .16127 elapsed seconds
Timing for main: time 2016-02-05_13:03:06 on domain   3:     .15522 elapsed seconds
Timing for main: time 2016-02-05_13:03:20 on domain   3:     .15518 elapsed seconds
Timing for main: time 2016-02-05_13:03:00 on domain   4:     .20603 elapsed seconds
Timing for main: time 2016-02-05_13:03:20 on domain   4:     .18646 elapsed seconds
Timing for main: time 2016-02-05_13:03:20 on domain   2:    1.58305 elapsed seconds
Timing for main: time 2016-02-05_13:03:33 on domain   3:     .16125 elapsed seconds
Timing for main: time 2016-02-05_13:03:46 on domain   3:     .15521 elapsed seconds
Timing for main: time 2016-02-05_13:04:00 on domain   3:     .15545 elapsed seconds
Timing for main: time 2016-02-05_13:03:40 on domain   4:     .20593 elapsed seconds
Timing for main: time 2016-02-05_13:04:00 on domain   4:     .20495 elapsed seconds
Timing for main: time 2016-02-05_13:04:00 on domain   2:    1.60787 elapsed seconds
Timing for main: time 2016-02-05_13:04:00 on domain   1:    5.12633 elapsed seconds
Timing for main: time 2016-02-05_13:04:13 on domain   3:     .16128 elapsed seconds
Timing for main: time 2016-02-05_13:04:26 on domain   3:     .15497 elapsed seconds
Timing for main: time 2016-02-05_13:04:40 on domain   3:     .15575 elapsed seconds
Timing for main: time 2016-02-05_13:04:20 on domain   4:     .20390 elapsed seconds
Timing for main: time 2016-02-05_13:04:40 on domain   4:     .18985 elapsed seconds
Timing for main: time 2016-02-05_13:04:40 on domain   2:    1.58402 elapsed seconds
Timing for main: time 2016-02-05_13:04:53 on domain   3:     .16097 elapsed seconds
Timing for main: time 2016-02-05_13:05:06 on domain   3:     .15513 elapsed seconds
Timing for main: time 2016-02-05_13:05:20 on domain   3:     .15586 elapsed seconds
Timing for main: time 2016-02-05_13:05:00 on domain   4:     .21262 elapsed seconds
Timing for main: time 2016-02-05_13:05:20 on domain   4:     .18739 elapsed seconds
Timing for main: time 2016-02-05_13:05:20 on domain   2:    1.59135 elapsed seconds
Timing for main: time 2016-02-05_13:05:33 on domain   3:     .16748 elapsed seconds
Timing for main: time 2016-02-05_13:05:46 on domain   3:     .15485 elapsed seconds
Timing for main: time 2016-02-05_13:06:00 on domain   3:     .15574 elapsed seconds
Timing for main: time 2016-02-05_13:05:40 on domain   4:     .20709 elapsed seconds
Timing for main: time 2016-02-05_13:06:00 on domain   4:     .18724 elapsed seconds
Timing for main: time 2016-02-05_13:06:00 on domain   2:    1.58980 elapsed seconds
Timing for main: time 2016-02-05_13:06:00 on domain   1:    5.11928 elapsed seconds
Timing for main: time 2016-02-05_13:06:13 on domain   3:     .16070 elapsed seconds
Timing for main: time 2016-02-05_13:06:26 on domain   3:     .16107 elapsed seconds
Timing for main: time 2016-02-05_13:06:40 on domain   3:     .15758 elapsed seconds
Timing for main: time 2016-02-05_13:06:20 on domain   4:     .20610 elapsed seconds
Timing for main: time 2016-02-05_13:06:40 on domain   4:     .18799 elapsed seconds
Timing for main: time 2016-02-05_13:06:40 on domain   2:    1.63729 elapsed seconds
Timing for main: time 2016-02-05_13:06:53 on domain   3:     .16160 elapsed seconds
Timing for main: time 2016-02-05_13:07:06 on domain   3:     .15525 elapsed seconds
Timing for main: time 2016-02-05_13:07:20 on domain   3:     .15577 elapsed seconds
Timing for main: time 2016-02-05_13:07:00 on domain   4:     .20626 elapsed seconds
Timing for main: time 2016-02-05_13:07:20 on domain   4:     .18773 elapsed seconds
Timing for main: time 2016-02-05_13:07:20 on domain   2:    1.58399 elapsed seconds
Timing for main: time 2016-02-05_13:07:33 on domain   3:     .16193 elapsed seconds
Timing for main: time 2016-02-05_13:07:46 on domain   3:     .15551 elapsed seconds
Timing for main: time 2016-02-05_13:08:00 on domain   3:     .15512 elapsed seconds
Timing for main: time 2016-02-05_13:07:40 on domain   4:     .20641 elapsed seconds
Timing for main: time 2016-02-05_13:08:00 on domain   4:     .18913 elapsed seconds
Timing for main: time 2016-02-05_13:08:00 on domain   2:    1.58582 elapsed seconds
Timing for main: time 2016-02-05_13:08:00 on domain   1:    5.15541 elapsed seconds
Timing for main: time 2016-02-05_13:08:13 on domain   3:     .16115 elapsed seconds
Timing for main: time 2016-02-05_13:08:26 on domain   3:     .15492 elapsed seconds
Timing for main: time 2016-02-05_13:08:40 on domain   3:     .15597 elapsed seconds
Timing for main: time 2016-02-05_13:08:20 on domain   4:     .20679 elapsed seconds
Timing for main: time 2016-02-05_13:08:40 on domain   4:     .18864 elapsed seconds
Timing for main: time 2016-02-05_13:08:40 on domain   2:    1.58870 elapsed seconds
Timing for main: time 2016-02-05_13:08:53 on domain   3:     .16282 elapsed seconds
Timing for main: time 2016-02-05_13:09:06 on domain   3:     .15652 elapsed seconds
Timing for main: time 2016-02-05_13:09:20 on domain   3:     .15684 elapsed seconds
Timing for main: time 2016-02-05_13:09:00 on domain   4:     .20623 elapsed seconds
Timing for main: time 2016-02-05_13:09:20 on domain   4:     .18772 elapsed seconds
Timing for main: time 2016-02-05_13:09:20 on domain   2:    1.59445 elapsed seconds
Timing for main: time 2016-02-05_13:09:33 on domain   3:     .16136 elapsed seconds
Timing for main: time 2016-02-05_13:09:46 on domain   3:     .15527 elapsed seconds
Timing for main: time 2016-02-05_13:10:00 on domain   3:     .15574 elapsed seconds
Timing for main: time 2016-02-05_13:09:40 on domain   4:     .20567 elapsed seconds
Timing for main: time 2016-02-05_13:10:00 on domain   4:     .19448 elapsed seconds
Timing for main: time 2016-02-05_13:10:00 on domain   2:    1.59062 elapsed seconds
Timing for main: time 2016-02-05_13:10:00 on domain   1:    5.22661 elapsed seconds
Timing for main: time 2016-02-05_13:10:13 on domain   3:     .16161 elapsed seconds
Timing for main: time 2016-02-05_13:10:26 on domain   3:     .15540 elapsed seconds
Timing for main: time 2016-02-05_13:10:40 on domain   3:     .15439 elapsed seconds
Timing for main: time 2016-02-05_13:10:20 on domain   4:     .20698 elapsed seconds
Timing for main: time 2016-02-05_13:10:40 on domain   4:     .18794 elapsed seconds
Timing for main: time 2016-02-05_13:10:40 on domain   2:    1.58597 elapsed seconds
Timing for main: time 2016-02-05_13:10:53 on domain   3:     .16070 elapsed seconds
Timing for main: time 2016-02-05_13:11:06 on domain   3:     .16008 elapsed seconds
Timing for main: time 2016-02-05_13:11:20 on domain   3:     .15553 elapsed seconds
Timing for main: time 2016-02-05_13:11:00 on domain   4:     .25349 elapsed seconds
Timing for main: time 2016-02-05_13:11:20 on domain   4:     .21338 elapsed seconds
Timing for main: time 2016-02-05_13:11:20 on domain   2:    1.66077 elapsed seconds
Timing for main: time 2016-02-05_13:11:33 on domain   3:     .16907 elapsed seconds
Timing for main: time 2016-02-05_13:11:46 on domain   3:     .15463 elapsed seconds
Timing for main: time 2016-02-05_13:12:00 on domain   3:     .15544 elapsed seconds
Timing for main: time 2016-02-05_13:11:40 on domain   4:     .20461 elapsed seconds
Timing for main: time 2016-02-05_13:12:00 on domain   4:     .18851 elapsed seconds
Timing for main: time 2016-02-05_13:12:00 on domain   2:    1.59043 elapsed seconds
Timing for main: time 2016-02-05_13:12:00 on domain   1:    5.19082 elapsed seconds
Timing for main: time 2016-02-05_13:12:13 on domain   3:     .16098 elapsed seconds
Timing for main: time 2016-02-05_13:12:26 on domain   3:     .15562 elapsed seconds
Timing for main: time 2016-02-05_13:12:40 on domain   3:     .15518 elapsed seconds
Timing for main: time 2016-02-05_13:12:20 on domain   4:     .20166 elapsed seconds
Timing for main: time 2016-02-05_13:12:40 on domain   4:     .20577 elapsed seconds
Timing for main: time 2016-02-05_13:12:40 on domain   2:    1.59947 elapsed seconds
Timing for main: time 2016-02-05_13:12:53 on domain   3:     .16037 elapsed seconds
Timing for main: time 2016-02-05_13:13:06 on domain   3:     .15579 elapsed seconds
Timing for main: time 2016-02-05_13:13:20 on domain   3:     .15602 elapsed seconds
Timing for main: time 2016-02-05_13:13:00 on domain   4:     .20453 elapsed seconds
Timing for main: time 2016-02-05_13:13:20 on domain   4:     .18744 elapsed seconds
Timing for main: time 2016-02-05_13:13:20 on domain   2:    1.58855 elapsed seconds
Timing for main: time 2016-02-05_13:13:33 on domain   3:     .16231 elapsed seconds
Timing for main: time 2016-02-05_13:13:46 on domain   3:     .15543 elapsed seconds
Timing for main: time 2016-02-05_13:14:00 on domain   3:     .15610 elapsed seconds
Timing for main: time 2016-02-05_13:13:40 on domain   4:     .20582 elapsed seconds
Timing for main: time 2016-02-05_13:14:00 on domain   4:     .18734 elapsed seconds
Timing for main: time 2016-02-05_13:14:00 on domain   2:    1.58474 elapsed seconds
Timing for main: time 2016-02-05_13:14:00 on domain   1:    5.12166 elapsed seconds
Timing for main: time 2016-02-05_13:14:13 on domain   3:     .16120 elapsed seconds
Timing for main: time 2016-02-05_13:14:26 on domain   3:     .15533 elapsed seconds
Timing for main: time 2016-02-05_13:14:40 on domain   3:     .15557 elapsed seconds
Timing for main: time 2016-02-05_13:14:20 on domain   4:     .20511 elapsed seconds
Timing for main: time 2016-02-05_13:14:40 on domain   4:     .18665 elapsed seconds
Timing for main: time 2016-02-05_13:14:40 on domain   2:    1.58938 elapsed seconds
Timing for main: time 2016-02-05_13:14:53 on domain   3:     .16072 elapsed seconds
Timing for main: time 2016-02-05_13:15:06 on domain   3:     .15587 elapsed seconds
Timing for main: time 2016-02-05_13:15:20 on domain   3:     .15517 elapsed seconds
Timing for main: time 2016-02-05_13:15:00 on domain   4:     .21176 elapsed seconds
Timing for main: time 2016-02-05_13:15:20 on domain   4:     .18801 elapsed seconds
Timing for main: time 2016-02-05_13:15:20 on domain   2:    1.59366 elapsed seconds
Timing for main: time 2016-02-05_13:15:33 on domain   3:     .16272 elapsed seconds
Timing for main: time 2016-02-05_13:15:46 on domain   3:     .15524 elapsed seconds
Timing for main: time 2016-02-05_13:16:00 on domain   3:     .15502 elapsed seconds
Timing for main: time 2016-02-05_13:15:40 on domain   4:     .20573 elapsed seconds
Timing for main: time 2016-02-05_13:16:00 on domain   4:     .18802 elapsed seconds
Timing for main: time 2016-02-05_13:16:00 on domain   2:    1.58577 elapsed seconds
Timing for main: time 2016-02-05_13:16:00 on domain   1:    5.12053 elapsed seconds
Timing for main: time 2016-02-05_13:16:13 on domain   3:     .16108 elapsed seconds
Timing for main: time 2016-02-05_13:16:26 on domain   3:     .15528 elapsed seconds
Timing for main: time 2016-02-05_13:16:40 on domain   3:     .16929 elapsed seconds
Timing for main: time 2016-02-05_13:16:20 on domain   4:     .20744 elapsed seconds
Timing for main: time 2016-02-05_13:16:40 on domain   4:     .18908 elapsed seconds
Timing for main: time 2016-02-05_13:16:40 on domain   2:    1.60041 elapsed seconds
Timing for main: time 2016-02-05_13:16:53 on domain   3:     .16094 elapsed seconds
Timing for main: time 2016-02-05_13:17:06 on domain   3:     .15490 elapsed seconds
Timing for main: time 2016-02-05_13:17:20 on domain   3:     .15635 elapsed seconds
Timing for main: time 2016-02-05_13:17:00 on domain   4:     .20479 elapsed seconds
Timing for main: time 2016-02-05_13:17:20 on domain   4:     .19087 elapsed seconds
Timing for main: time 2016-02-05_13:17:20 on domain   2:    1.58699 elapsed seconds
Timing for main: time 2016-02-05_13:17:33 on domain   3:     .16078 elapsed seconds
[...]
Timing for main: time 2016-02-05_17:36:00 on domain   2:    1.59473 elapsed seconds
Timing for main: time 2016-02-05_17:36:00 on domain   1:    5.13016 elapsed seconds
Timing for main: time 2016-02-05_17:36:13 on domain   3:     .16171 elapsed seconds
Timing for main: time 2016-02-05_17:36:26 on domain   3:     .15589 elapsed seconds
Timing for main: time 2016-02-05_17:36:40 on domain   3:     .15620 elapsed seconds
Timing for main: time 2016-02-05_17:36:20 on domain   4:     .20564 elapsed seconds
Timing for main: time 2016-02-05_17:36:40 on domain   4:     .18784 elapsed seconds
Timing for main: time 2016-02-05_17:36:40 on domain   2:    1.58761 elapsed seconds
Timing for main: time 2016-02-05_17:36:53 on domain   3:     .16174 elapsed seconds
Timing for main: time 2016-02-05_17:37:06 on domain   3:     .15596 elapsed seconds
Timing for main: time 2016-02-05_17:37:20 on domain   3:     .16148 elapsed seconds
Timing for main: time 2016-02-05_17:37:00 on domain   4:     .20585 elapsed seconds
Timing for main: time 2016-02-05_17:37:20 on domain   4:     .18632 elapsed seconds
Timing for main: time 2016-02-05_17:37:20 on domain   2:    1.59066 elapsed seconds
Timing for main: time 2016-02-05_17:37:33 on domain   3:     .16146 elapsed seconds
Timing for main: time 2016-02-05_17:37:46 on domain   3:     .15587 elapsed seconds
Timing for main: time 2016-02-05_17:38:00 on domain   3:     .15569 elapsed seconds
Timing for main: time 2016-02-05_17:37:40 on domain   4:     .20592 elapsed seconds
Timing for main: time 2016-02-05_17:38:00 on domain   4:     .18729 elapsed seconds
Timing for main: time 2016-02-05_17:38:00 on domain   2:    1.58509 elapsed seconds
Timing for main: time 2016-02-05_17:38:00 on domain   1:    5.11430 elapsed seconds
Timing for main: time 2016-02-05_17:38:13 on domain   3:     .16175 elapsed seconds
Timing for main: time 2016-02-05_17:38:26 on domain   3:     .15587 elapsed seconds
Timing for main: time 2016-02-05_17:38:40 on domain   3:     .15893 elapsed seconds
Timing for main: time 2016-02-05_17:38:20 on domain   4:     .20588 elapsed seconds
Timing for main: time 2016-02-05_17:38:40 on domain   4:     .18839 elapsed seconds
Timing for main: time 2016-02-05_17:38:40 on domain   2:    1.59054 elapsed seconds
Timing for main: time 2016-02-05_17:38:53 on domain   3:     .16692 elapsed seconds
Timing for main: time 2016-02-05_17:39:06 on domain   3:     .16239 elapsed seconds
Timing for main: time 2016-02-05_17:39:20 on domain   3:     .15021 elapsed seconds
Timing for main: time 2016-02-05_17:39:00 on domain   4:     .20619 elapsed seconds
Timing for main: time 2016-02-05_17:39:20 on domain   4:     .18763 elapsed seconds
Timing for main: time 2016-02-05_17:39:20 on domain   2:    1.61372 elapsed seconds
Timing for main: time 2016-02-05_17:39:33 on domain   3:     .16190 elapsed seconds
Timing for main: time 2016-02-05_17:39:46 on domain   3:     .15589 elapsed seconds
Timing for main: time 2016-02-05_17:40:00 on domain   3:     .15546 elapsed seconds
Timing for main: time 2016-02-05_17:39:40 on domain   4:     .20710 elapsed seconds
Timing for main: time 2016-02-05_17:40:00 on domain   4:     .19559 elapsed seconds
Timing for main: time 2016-02-05_17:40:00 on domain   2:    1.59521 elapsed seconds
Timing for main: time 2016-02-05_17:40:00 on domain   1:    5.15073 elapsed seconds
Timing for main: time 2016-02-05_17:40:13 on domain   3:     .16118 elapsed seconds
Timing for main: time 2016-02-05_17:40:26 on domain   3:     .15519 elapsed seconds
Timing for main: time 2016-02-05_17:40:40 on domain   3:     .15603 elapsed seconds
Timing for main: time 2016-02-05_17:40:20 on domain   4:     .23272 elapsed seconds
Timing for main: time 2016-02-05_17:40:40 on domain   4:     .19715 elapsed seconds
Timing for main: time 2016-02-05_17:40:40 on domain   2:    1.63627 elapsed seconds
Timing for main: time 2016-02-05_17:40:53 on domain   3:     .16165 elapsed seconds
Timing for main: time 2016-02-05_17:41:06 on domain   3:     .15603 elapsed seconds
Timing for main: time 2016-02-05_17:41:20 on domain   3:     .15548 elapsed seconds
Timing for main: time 2016-02-05_17:41:00 on domain   4:     .20268 elapsed seconds
Timing for main: time 2016-02-05_17:41:20 on domain   4:     .18926 elapsed seconds
Timing for main: time 2016-02-05_17:41:20 on domain   2:    1.58832 elapsed seconds
Timing for main: time 2016-02-05_17:41:33 on domain   3:     .16182 elapsed seconds
Timing for main: time 2016-02-05_17:41:46 on domain   3:     .15581 elapsed seconds
Timing for main: time 2016-02-05_17:42:00 on domain   3:     .15647 elapsed seconds
Timing for main: time 2016-02-05_17:41:40 on domain   4:     .20661 elapsed seconds
Timing for main: time 2016-02-05_17:42:00 on domain   4:     .18797 elapsed seconds
Timing for main: time 2016-02-05_17:42:00 on domain   2:    1.59034 elapsed seconds
Timing for main: time 2016-02-05_17:42:00 on domain   1:    5.16922 elapsed seconds
Timing for main: time 2016-02-05_17:42:13 on domain   3:     .16230 elapsed seconds
Timing for main: time 2016-02-05_17:42:26 on domain   3:     .16201 elapsed seconds
Timing for main: time 2016-02-05_17:42:40 on domain   3:     .15654 elapsed seconds
Timing for main: time 2016-02-05_17:42:20 on domain   4:     .20562 elapsed seconds
Timing for main: time 2016-02-05_17:42:40 on domain   4:     .18690 elapsed seconds
Timing for main: time 2016-02-05_17:42:40 on domain   2:    1.59339 elapsed seconds
Timing for main: time 2016-02-05_17:42:53 on domain   3:     .16189 elapsed seconds
Timing for main: time 2016-02-05_17:43:06 on domain   3:     .15589 elapsed seconds
Timing for main: time 2016-02-05_17:43:20 on domain   3:     .15538 elapsed seconds
Timing for main: time 2016-02-05_17:43:00 on domain   4:     .20548 elapsed seconds
Timing for main: time 2016-02-05_17:43:20 on domain   4:     .18747 elapsed seconds
Timing for main: time 2016-02-05_17:43:20 on domain   2:    1.58570 elapsed seconds
Timing for main: time 2016-02-05_17:43:33 on domain   3:     .17915 elapsed seconds
Timing for main: time 2016-02-05_17:43:46 on domain   3:     .21458 elapsed seconds
Timing for main: time 2016-02-05_17:44:00 on domain   3:     .16065 elapsed seconds
Timing for main: time 2016-02-05_17:43:40 on domain   4:     .20541 elapsed seconds
Timing for main: time 2016-02-05_17:44:00 on domain   4:     .18636 elapsed seconds
Timing for main: time 2016-02-05_17:44:00 on domain   2:    1.66518 elapsed seconds
Timing for main: time 2016-02-05_17:44:00 on domain   1:    5.19501 elapsed seconds
Timing for main: time 2016-02-05_17:44:13 on domain   3:     .16185 elapsed seconds
Timing for main: time 2016-02-05_17:44:26 on domain   3:     .15519 elapsed seconds
Timing for main: time 2016-02-05_17:44:40 on domain   3:     .15615 elapsed seconds
Timing for main: time 2016-02-05_17:44:20 on domain   4:     .20518 elapsed seconds
Timing for main: time 2016-02-05_17:44:40 on domain   4:     .18610 elapsed seconds
Timing for main: time 2016-02-05_17:44:40 on domain   2:    1.58513 elapsed seconds
Timing for main: time 2016-02-05_17:44:53 on domain   3:     .16178 elapsed seconds
Timing for main: time 2016-02-05_17:45:06 on domain   3:     .15544 elapsed seconds
Timing for main: time 2016-02-05_17:45:20 on domain   3:     .15587 elapsed seconds
Timing for main: time 2016-02-05_17:45:00 on domain   4:     .21173 elapsed seconds
Timing for main: time 2016-02-05_17:45:20 on domain   4:     .18646 elapsed seconds
Timing for main: time 2016-02-05_17:45:20 on domain   2:    1.59187 elapsed seconds
Timing for main: time 2016-02-05_17:45:33 on domain   3:     .16426 elapsed seconds
Timing for main: time 2016-02-05_17:45:46 on domain   3:     .15485 elapsed seconds
Timing for main: time 2016-02-05_17:46:00 on domain   3:     .15573 elapsed seconds
Timing for main: time 2016-02-05_17:45:40 on domain   4:     .20532 elapsed seconds
Timing for main: time 2016-02-05_17:46:00 on domain   4:     .18597 elapsed seconds
Timing for main: time 2016-02-05_17:46:00 on domain   2:    1.58556 elapsed seconds
Timing for main: time 2016-02-05_17:46:00 on domain   1:    5.11367 elapsed seconds
Timing for main: time 2016-02-05_17:46:13 on domain   3:     .16418 elapsed seconds
Timing for main: time 2016-02-05_17:46:26 on domain   3:     .15560 elapsed seconds
Timing for main: time 2016-02-05_17:46:40 on domain   3:     .15634 elapsed seconds
Timing for main: time 2016-02-05_17:46:20 on domain   4:     .22088 elapsed seconds
Timing for main: time 2016-02-05_17:46:40 on domain   4:     .19871 elapsed seconds
Timing for main: time 2016-02-05_17:46:40 on domain   2:    1.63645 elapsed seconds
Timing for main: time 2016-02-05_17:46:53 on domain   3:     .16141 elapsed seconds
Timing for main: time 2016-02-05_17:47:06 on domain   3:     .15629 elapsed seconds
Timing for main: time 2016-02-05_17:47:20 on domain   3:     .15597 elapsed seconds
Timing for main: time 2016-02-05_17:47:00 on domain   4:     .20659 elapsed seconds
Timing for main: time 2016-02-05_17:47:20 on domain   4:     .18688 elapsed seconds
Timing for main: time 2016-02-05_17:47:20 on domain   2:    1.58741 elapsed seconds
Timing for main: time 2016-02-05_17:47:33 on domain   3:     .16716 elapsed seconds
Timing for main: time 2016-02-05_17:47:46 on domain   3:     .15608 elapsed seconds
Timing for main: time 2016-02-05_17:48:00 on domain   3:     .15582 elapsed seconds
Timing for main: time 2016-02-05_17:47:40 on domain   4:     .20443 elapsed seconds
Timing for main: time 2016-02-05_17:48:00 on domain   4:     .18668 elapsed seconds
Timing for main: time 2016-02-05_17:48:00 on domain   2:    1.58894 elapsed seconds
Timing for main: time 2016-02-05_17:48:00 on domain   1:    5.16881 elapsed seconds
Timing for main: time 2016-02-05_17:48:13 on domain   3:     .16220 elapsed seconds
Timing for main: time 2016-02-05_17:48:26 on domain   3:     .15621 elapsed seconds
Timing for main: time 2016-02-05_17:48:40 on domain   3:     .15607 elapsed seconds
Timing for main: time 2016-02-05_17:48:20 on domain   4:     .22481 elapsed seconds
Timing for main: time 2016-02-05_17:48:40 on domain   4:     .24445 elapsed seconds
Timing for main: time 2016-02-05_17:48:40 on domain   2:    1.66329 elapsed seconds
Timing for main: time 2016-02-05_17:48:53 on domain   3:     .16233 elapsed seconds
Timing for main: time 2016-02-05_17:49:06 on domain   3:     .15649 elapsed seconds
Timing for main: time 2016-02-05_17:49:20 on domain   3:     .15583 elapsed seconds
Timing for main: time 2016-02-05_17:49:00 on domain   4:     .20490 elapsed seconds
Timing for main: time 2016-02-05_17:49:20 on domain   4:     .18697 elapsed seconds
Timing for main: time 2016-02-05_17:49:20 on domain   2:    1.58822 elapsed seconds
Timing for main: time 2016-02-05_17:49:33 on domain   3:     .16199 elapsed seconds
Timing for main: time 2016-02-05_17:49:46 on domain   3:     .15594 elapsed seconds
Timing for main: time 2016-02-05_17:50:00 on domain   3:     .15636 elapsed seconds
Timing for main: time 2016-02-05_17:49:40 on domain   4:     .20404 elapsed seconds
Timing for main: time 2016-02-05_17:50:00 on domain   4:     .19376 elapsed seconds
Timing for main: time 2016-02-05_17:50:00 on domain   2:    1.59163 elapsed seconds
Timing for main: time 2016-02-05_17:50:00 on domain   1:    5.19560 elapsed seconds
Timing for main: time 2016-02-05_17:50:13 on domain   3:     .16279 elapsed seconds
Timing for main: time 2016-02-05_17:50:26 on domain   3:     .15576 elapsed seconds
Timing for main: time 2016-02-05_17:50:40 on domain   3:     .15617 elapsed seconds
Timing for main: time 2016-02-05_17:50:20 on domain   4:     .22037 elapsed seconds
Timing for main: time 2016-02-05_17:50:40 on domain   4:     .22780 elapsed seconds
Timing for main: time 2016-02-05_17:50:40 on domain   2:    1.64322 elapsed seconds
Timing for main: time 2016-02-05_17:50:53 on domain   3:     .16222 elapsed seconds
Timing for main: time 2016-02-05_17:51:06 on domain   3:     .15719 elapsed seconds
Timing for main: time 2016-02-05_17:51:20 on domain   3:     .15581 elapsed seconds
Timing for main: time 2016-02-05_17:51:00 on domain   4:     .20529 elapsed seconds
Timing for main: time 2016-02-05_17:51:20 on domain   4:     .18586 elapsed seconds
Timing for main: time 2016-02-05_17:51:20 on domain   2:    1.58485 elapsed seconds
Timing for main: time 2016-02-05_17:51:33 on domain   3:     .16135 elapsed seconds
Timing for main: time 2016-02-05_17:51:46 on domain   3:     .15569 elapsed seconds
Timing for main: time 2016-02-05_17:52:00 on domain   3:     .15591 elapsed seconds
Timing for main: time 2016-02-05_17:51:40 on domain   4:     .20503 elapsed seconds
Timing for main: time 2016-02-05_17:52:00 on domain   4:     .18551 elapsed seconds
Timing for main: time 2016-02-05_17:52:00 on domain   2:    1.59041 elapsed seconds
Timing for main: time 2016-02-05_17:52:00 on domain   1:    5.16975 elapsed seconds
Timing for main: time 2016-02-05_17:52:13 on domain   3:     .16176 elapsed seconds
Timing for main: time 2016-02-05_17:52:26 on domain   3:     .15624 elapsed seconds
Timing for main: time 2016-02-05_17:52:40 on domain   3:     .16147 elapsed seconds
Timing for main: time 2016-02-05_17:52:20 on domain   4:     .20470 elapsed seconds
Timing for main: time 2016-02-05_17:52:40 on domain   4:     .18666 elapsed seconds
Timing for main: time 2016-02-05_17:52:40 on domain   2:    1.59115 elapsed seconds
Timing for main: time 2016-02-05_17:52:53 on domain   3:     .16212 elapsed seconds
Timing for main: time 2016-02-05_17:53:06 on domain   3:     .15525 elapsed seconds
Timing for main: time 2016-02-05_17:53:20 on domain   3:     .15687 elapsed seconds
Timing for main: time 2016-02-05_17:53:00 on domain   4:     .20475 elapsed seconds
Timing for main: time 2016-02-05_17:53:20 on domain   4:     .18624 elapsed seconds
Timing for main: time 2016-02-05_17:53:20 on domain   2:    1.58471 elapsed seconds
Timing for main: time 2016-02-05_17:53:33 on domain   3:     .16104 elapsed seconds
Timing for main: time 2016-02-05_17:53:46 on domain   3:     .15597 elapsed seconds
Timing for main: time 2016-02-05_17:54:00 on domain   3:     .15626 elapsed seconds
Timing for main: time 2016-02-05_17:53:40 on domain   4:     .20480 elapsed seconds
Timing for main: time 2016-02-05_17:54:00 on domain   4:     .18499 elapsed seconds
Timing for main: time 2016-02-05_17:54:00 on domain   2:    1.58247 elapsed seconds
Timing for main: time 2016-02-05_17:54:00 on domain   1:    5.11409 elapsed seconds
Timing for main: time 2016-02-05_17:54:13 on domain   3:     .16148 elapsed seconds
Timing for main: time 2016-02-05_17:54:26 on domain   3:     .15565 elapsed seconds
Timing for main: time 2016-02-05_17:54:40 on domain   3:     .15630 elapsed seconds
Timing for main: time 2016-02-05_17:54:20 on domain   4:     .20432 elapsed seconds
Timing for main: time 2016-02-05_17:54:40 on domain   4:     .18670 elapsed seconds
Timing for main: time 2016-02-05_17:54:40 on domain   2:    1.58637 elapsed seconds
Timing for main: time 2016-02-05_17:54:53 on domain   3:     .16136 elapsed seconds
Timing for main: time 2016-02-05_17:55:06 on domain   3:     .15590 elapsed seconds
Timing for main: time 2016-02-05_17:55:20 on domain   3:     .15597 elapsed seconds
Timing for main: time 2016-02-05_17:55:00 on domain   4:     .21164 elapsed seconds
Timing for main: time 2016-02-05_17:55:20 on domain   4:     .18626 elapsed seconds
Timing for main: time 2016-02-05_17:55:20 on domain   2:    1.59043 elapsed seconds
Timing for main: time 2016-02-05_17:55:33 on domain   3:     .16207 elapsed seconds
Timing for main: time 2016-02-05_17:55:46 on domain   3:     .15584 elapsed seconds
Timing for main: time 2016-02-05_17:56:00 on domain   3:     .15661 elapsed seconds
Timing for main: time 2016-02-05_17:55:40 on domain   4:     .20483 elapsed seconds
Timing for main: time 2016-02-05_17:56:00 on domain   4:     .18671 elapsed seconds
Timing for main: time 2016-02-05_17:56:00 on domain   2:    1.58578 elapsed seconds
Timing for main: time 2016-02-05_17:56:00 on domain   1:    5.11365 elapsed seconds
Timing for main: time 2016-02-05_17:56:13 on domain   3:     .16210 elapsed seconds
Timing for main: time 2016-02-05_17:56:26 on domain   3:     .15537 elapsed seconds
Timing for main: time 2016-02-05_17:56:40 on domain   3:     .15616 elapsed seconds
Timing for main: time 2016-02-05_17:56:20 on domain   4:     .20473 elapsed seconds
Timing for main: time 2016-02-05_17:56:40 on domain   4:     .18838 elapsed seconds
Timing for main: time 2016-02-05_17:56:40 on domain   2:    1.58931 elapsed seconds
Timing for main: time 2016-02-05_17:56:53 on domain   3:     .16197 elapsed seconds
Timing for main: time 2016-02-05_17:57:06 on domain   3:     .15586 elapsed seconds
Timing for main: time 2016-02-05_17:57:20 on domain   3:     .15609 elapsed seconds
Timing for main: time 2016-02-05_17:57:00 on domain   4:     .20593 elapsed seconds
Timing for main: time 2016-02-05_17:57:20 on domain   4:     .18530 elapsed seconds
Timing for main: time 2016-02-05_17:57:20 on domain   2:    1.59260 elapsed seconds
Timing for main: time 2016-02-05_17:57:33 on domain   3:     .16191 elapsed seconds
Timing for main: time 2016-02-05_17:57:46 on domain   3:     .16146 elapsed seconds
Timing for main: time 2016-02-05_17:58:00 on domain   3:     .15692 elapsed seconds
Timing for main: time 2016-02-05_17:57:40 on domain   4:     .20394 elapsed seconds
Timing for main: time 2016-02-05_17:58:00 on domain   4:     .18774 elapsed seconds
Timing for main: time 2016-02-05_17:58:00 on domain   2:    1.58938 elapsed seconds
Timing for main: time 2016-02-05_17:58:00 on domain   1:    5.12315 elapsed seconds
  photolysis_driver: called for domain  1
Timing for main: time 2016-02-05_17:58:13 on domain   3:     .16168 elapsed seconds
Timing for main: time 2016-02-05_17:58:26 on domain   3:     .15554 elapsed seconds
Timing for main: time 2016-02-05_17:58:40 on domain   3:     .15634 elapsed seconds
Timing for main: time 2016-02-05_17:58:20 on domain   4:     .20539 elapsed seconds
Timing for main: time 2016-02-05_17:58:40 on domain   4:     .18565 elapsed seconds
Timing for main: time 2016-02-05_17:58:40 on domain   2:    1.58438 elapsed seconds
Timing for main: time 2016-02-05_17:58:53 on domain   3:     .16211 elapsed seconds
Timing for main: time 2016-02-05_17:59:06 on domain   3:     .15536 elapsed seconds
Timing for main: time 2016-02-05_17:59:20 on domain   3:     .15592 elapsed seconds
Timing for main: time 2016-02-05_17:59:00 on domain   4:     .20446 elapsed seconds
Timing for main: time 2016-02-05_17:59:20 on domain   4:     .18682 elapsed seconds
Timing for main: time 2016-02-05_17:59:20 on domain   2:    1.58614 elapsed seconds
  photolysis_driver: called for domain  2
Timing for main: time 2016-02-05_17:59:33 on domain   3:     .16190 elapsed seconds
Timing for main: time 2016-02-05_17:59:46 on domain   3:     .15547 elapsed seconds
  photolysis_driver: called for domain  3
Timing for main: time 2016-02-05_18:00:00 on domain   3:     .68003 elapsed seconds
Timing for Writing wrfout_d03_2016-02-05_18:00:00 for domain        3:    3.13579 elapsed seconds
Timing for main: time 2016-02-05_17:59:40 on domain   4:     .20313 elapsed seconds
  photolysis_driver: called for domain  4
Timing for main: time 2016-02-05_18:00:00 on domain   4:     .81470 elapsed seconds
Timing for Writing wrfout_d04_2016-02-05_18:00:00 for domain        4:    3.44116 elapsed seconds
Timing for main: time 2016-02-05_18:00:00 on domain   2:   10.00565 elapsed seconds
Timing for Writing wrfout_d02_2016-02-05_18:00:00 for domain        2:    3.83024 elapsed seconds
Timing for main: time 2016-02-05_18:00:00 on domain   1:   17.73647 elapsed seconds
Timing for Writing wrfout_d01_2016-02-05_18:00:00 for domain        1:    3.03982 elapsed seconds
 d01 2016-02-05_18:00:00 wrf: SUCCESS COMPLETE WRF
