taskid: 0 hostname: p10a51.pbm.ihost.com
  Ntasks in X  20 , ntasks in Y  20
 Setting blank km_opt entries to domain #1 values.
  --> The km_opt entry in the namelist.input is now max_domains.
 Setting blank diff_opt entries to domain #1 values.
  --> The diff_opt entry in the namelist.input is now max_domains.
 --- WARNING: traj_opt is zero, but num_traj is not zero; setting num_traj to zero.
 --- NOTE: hypsometric_opt is 2, setting adjust_heights = F
 --- NOTE: sst_update is 0, setting io_form_auxinput4 = 0 and auxinput4_interval = 0 for all domains
 --- NOTE: sst_update is 0, setting io_form_auxinput4 = 0 and auxinput4_interval = 0 for all domains
 --- NOTE: sst_update is 0, setting io_form_auxinput4 = 0 and auxinput4_interval = 0 for all domains
 --- NOTE: sst_update is 0, setting io_form_auxinput4 = 0 and auxinput4_interval = 0 for all domains
 --- NOTE: grid_fdda is 0 for domain      1, setting gfdda interval and ending time to 0 for that domain.
 --- NOTE: both grid_sfdda and pxlsm_soil_nudge are 0 for domain      1, setting sgfdda interval and ending time to 0 for that domain.
 --- NOTE: obs_nudge_opt is 0 for domain      1, setting obs nudging interval and ending time to 0 for that domain.
 --- NOTE: grid_fdda is 0 for domain      2, setting gfdda interval and ending time to 0 for that domain.
 --- NOTE: both grid_sfdda and pxlsm_soil_nudge are 0 for domain      2, setting sgfdda interval and ending time to 0 for that domain.
 --- NOTE: obs_nudge_opt is 0 for domain      2, setting obs nudging interval and ending time to 0 for that domain.
 --- NOTE: grid_fdda is 0 for domain      3, setting gfdda interval and ending time to 0 for that domain.
 --- NOTE: both grid_sfdda and pxlsm_soil_nudge are 0 for domain      3, setting sgfdda interval and ending time to 0 for that domain.
 --- NOTE: obs_nudge_opt is 0 for domain      3, setting obs nudging interval and ending time to 0 for that domain.
 --- NOTE: grid_fdda is 0 for domain      4, setting gfdda interval and ending time to 0 for that domain.
 --- NOTE: both grid_sfdda and pxlsm_soil_nudge are 0 for domain      4, setting sgfdda interval and ending time to 0 for that domain.
 --- NOTE: obs_nudge_opt is 0 for domain      4, setting obs nudging interval and ending time to 0 for that domain.
 bl_pbl_physics /= 4, implies mfshconv must be 0, resetting
 --- NOTE: num_soil_layers has been set to      4
 WRF V3.6 MODEL
  *************************************
  Parent domain
  ids,ide,jds,jde  1 271 1 181
  ims,ime,jms,jme  -4 21 -4 16
  ips,ipe,jps,jpe  1 14 1 9
  *************************************
 DYNAMICS OPTION: Eulerian Mass Coordinate
    alloc_space_field: domain  1 ,  57211468  bytes allocated
   med_initialdata_input: calling input_input
Timing for processing wrfinput file (stream 0) for domain        1:    4.06614 elapsed seconds
 INPUT LandUse = "USGS"
  LANDUSE TYPE = "USGS" FOUND 33  CATEGORIES 2  SEASONS WATER CATEGORY =  16  SNOW CATEGORY =  24
 INITIALIZE THREE Noah LSM RELATED TABLES
  LANDUSE TYPE = USGS FOUND 27  CATEGORIES
  INPUT SOIL TEXTURE CLASSIFICATION = STAS
  SOIL TEXTURE CLASSIFICATION = STAS FOUND 19  CATEGORIES
 *********************************************************************
 *             PROGRAM:WRF/CHEM V3.6 MODEL
 *                                                                   *
 *    PLEASE REPORT ANY BUGS TO WRF/CHEM HELP at                     *
 *                                                                   *
 *              wrfchemhelp.gsd@noaa.gov                             *
 *                                                                   *
 *********************************************************************
 WARNING: dust option 1 currently works only with the GOCART aerosol option.
 WARNING: sea salt option 1 currently works only with the GOCART aerosol option.
  *************************************
  Nesting domain
  ids,ide,jds,jde  1 361 1 253
  ims,ime,jms,jme  -4 30 -4 24
  ips,ipe,jps,jpe  1 18 1 13
  INTERMEDIATE domain
  ids,ide,jds,jde  74 199 47 136
  ims,ime,jms,jme  69 91 42 62
  ips,ipe,jps,jpe  72 81 45 52
  *************************************
 d01 2016-02-05_12:00:00  alloc_space_field: domain  2 ,  102743272  bytes allocated
 d01 2016-02-05_12:00:00  alloc_space_field: domain  2 ,  6083868  bytes allocated
 d01 2016-02-05_12:00:00 *** Initializing nest domain # 2 from an input file. ***
 d01 2016-02-05_12:00:00 med_initialdata_input: calling input_input
Timing for processing wrfinput file (stream 0) for domain        2:    6.41904 elapsed seconds
 INPUT LandUse = "USGS"
  LANDUSE TYPE = "USGS" FOUND 33  CATEGORIES 2  SEASONS WATER CATEGORY =  16  SNOW CATEGORY =  24
 INITIALIZE THREE Noah LSM RELATED TABLES
  LANDUSE TYPE = USGS FOUND 27  CATEGORIES
  INPUT SOIL TEXTURE CLASSIFICATION = STAS
  SOIL TEXTURE CLASSIFICATION = STAS FOUND 19  CATEGORIES
 *********************************************************************
 *             PROGRAM:WRF/CHEM V3.6 MODEL
 *                                                                   *
 *    PLEASE REPORT ANY BUGS TO WRF/CHEM HELP at                     *
 *                                                                   *
 *              wrfchemhelp.gsd@noaa.gov                             *
 *                                                                   *
 *********************************************************************
 WARNING: dust option 1 currently works only with the GOCART aerosol option.
 WARNING: sea salt option 1 currently works only with the GOCART aerosol option.
 INPUT LandUse = "USGS"
  LANDUSE TYPE = "USGS" FOUND 33  CATEGORIES 2  SEASONS WATER CATEGORY =  16  SNOW CATEGORY =  24
 INITIALIZE THREE Noah LSM RELATED TABLES
  LANDUSE TYPE = USGS FOUND 27  CATEGORIES
  INPUT SOIL TEXTURE CLASSIFICATION = STAS
  SOIL TEXTURE CLASSIFICATION = STAS FOUND 19  CATEGORIES
 *********************************************************************
 *             PROGRAM:WRF/CHEM V3.6 MODEL
 *                                                                   *
 *    PLEASE REPORT ANY BUGS TO WRF/CHEM HELP at                     *
 *                                                                   *
 *              wrfchemhelp.gsd@noaa.gov                             *
 *                                                                   *
 *********************************************************************
 WARNING: dust option 1 currently works only with the GOCART aerosol option.
 WARNING: sea salt option 1 currently works only with the GOCART aerosol option.
 INPUT LandUse = "USGS"
  LANDUSE TYPE = "USGS" FOUND 33  CATEGORIES 2  SEASONS WATER CATEGORY =  16  SNOW CATEGORY =  24
 INITIALIZE THREE Noah LSM RELATED TABLES
  LANDUSE TYPE = USGS FOUND 27  CATEGORIES
  INPUT SOIL TEXTURE CLASSIFICATION = STAS
  SOIL TEXTURE CLASSIFICATION = STAS FOUND 19  CATEGORIES
 *********************************************************************
 *             PROGRAM:WRF/CHEM V3.6 MODEL
 *                                                                   *
 *    PLEASE REPORT ANY BUGS TO WRF/CHEM HELP at                     *
 *                                                                   *
 *              wrfchemhelp.gsd@noaa.gov                             *
 *                                                                   *
 *********************************************************************
 WARNING: dust option 1 currently works only with the GOCART aerosol option.
 WARNING: sea salt option 1 currently works only with the GOCART aerosol option.
Timing for Writing wrfout_d01_2016-02-05_12:00:00 for domain        1:    2.41124 elapsed seconds
  mediation_integrate: med_read_wrf_chem_emissions: Open file wrfchemi_12z_d01
  HOURLY EMISSIONS UPDATE TIME         .0        .0
 mediation_integrate: med_read_wrf_chem_emissions: Read emissions for time 2016-02-05_12:00:00
 **WARNING** Time in input file not being checked **WARNING**
Timing for processing lateral boundary for domain        1:    3.41027 elapsed seconds
  Tile Strategy is not specified. Assuming 1D-Y
 WRF TILE   1 IS      1 IE     14 JS      1 JE      9
 WRF NUMBER OF TILES =   1
  photolysis_driver: called for domain  1
  *************************************
  Nesting domain
  ids,ide,jds,jde  1 307 1 241
  ims,ime,jms,jme  -4 27 -4 24
  ips,ipe,jps,jpe  1 16 1 12
  INTERMEDIATE domain
  ids,ide,jds,jde  124 231 35 120
  ims,ime,jms,jme  119 140 30 50
  ips,ipe,jps,jpe  122 130 33 40
  *************************************
 d02 2016-02-05_12:00:00  alloc_space_field: domain  3 ,  94276368  bytes allocated
 d02 2016-02-05_12:00:00  alloc_space_field: domain  3 ,  5819352  bytes allocated
 d02 2016-02-05_12:00:00 *** Initializing nest domain # 3 from an input file. ***
 d02 2016-02-05_12:00:00 med_initialdata_input: calling input_input
Timing for processing wrfinput file (stream 0) for domain        3:    5.25621 elapsed seconds
 INPUT LandUse = "USGS"
  LANDUSE TYPE = "USGS" FOUND 33  CATEGORIES 2  SEASONS WATER CATEGORY =  16  SNOW CATEGORY =  24
 INITIALIZE THREE Noah LSM RELATED TABLES
  LANDUSE TYPE = USGS FOUND 27  CATEGORIES
  INPUT SOIL TEXTURE CLASSIFICATION = STAS
  SOIL TEXTURE CLASSIFICATION = STAS FOUND 19  CATEGORIES
 *********************************************************************
 *             PROGRAM:WRF/CHEM V3.6 MODEL
 *                                                                   *
 *    PLEASE REPORT ANY BUGS TO WRF/CHEM HELP at                     *
 *                                                                   *
 *              wrfchemhelp.gsd@noaa.gov                             *
 *                                                                   *
 *********************************************************************
 WARNING: dust option 1 currently works only with the GOCART aerosol option.
 WARNING: sea salt option 1 currently works only with the GOCART aerosol option.
 INPUT LandUse = "USGS"
  LANDUSE TYPE = "USGS" FOUND 33  CATEGORIES 2  SEASONS WATER CATEGORY =  16  SNOW CATEGORY =  24
 INITIALIZE THREE Noah LSM RELATED TABLES
  LANDUSE TYPE = USGS FOUND 27  CATEGORIES
  INPUT SOIL TEXTURE CLASSIFICATION = STAS
  SOIL TEXTURE CLASSIFICATION = STAS FOUND 19  CATEGORIES
 *********************************************************************
 *             PROGRAM:WRF/CHEM V3.6 MODEL
 *                                                                   *
 *    PLEASE REPORT ANY BUGS TO WRF/CHEM HELP at                     *
 *                                                                   *
 *              wrfchemhelp.gsd@noaa.gov                             *
 *                                                                   *
 *********************************************************************
 WARNING: dust option 1 currently works only with the GOCART aerosol option.
 WARNING: sea salt option 1 currently works only with the GOCART aerosol option.
 INPUT LandUse = "USGS"
  LANDUSE TYPE = "USGS" FOUND 33  CATEGORIES 2  SEASONS WATER CATEGORY =  16  SNOW CATEGORY =  24
 INITIALIZE THREE Noah LSM RELATED TABLES
  LANDUSE TYPE = USGS FOUND 27  CATEGORIES
  INPUT SOIL TEXTURE CLASSIFICATION = STAS
  SOIL TEXTURE CLASSIFICATION = STAS FOUND 19  CATEGORIES
 *********************************************************************
 *             PROGRAM:WRF/CHEM V3.6 MODEL
 *                                                                   *
 *    PLEASE REPORT ANY BUGS TO WRF/CHEM HELP at                     *
 *                                                                   *
 *              wrfchemhelp.gsd@noaa.gov                             *
 *                                                                   *
 *********************************************************************
 WARNING: dust option 1 currently works only with the GOCART aerosol option.
 WARNING: sea salt option 1 currently works only with the GOCART aerosol option.
  *************************************
  Nesting domain
  ids,ide,jds,jde  1 217 1 388
  ims,ime,jms,jme  -4 21 -4 30
  ips,ipe,jps,jpe  1 11 1 20
  INTERMEDIATE domain
  ids,ide,jds,jde  225 302 83 217
  ims,ime,jms,jme  220 240 78 101
  ips,ipe,jps,jpe  223 230 81 91
  *************************************
 d02 2016-02-05_12:00:00  alloc_space_field: domain  4 ,  92704520  bytes allocated
 d02 2016-02-05_12:00:00  alloc_space_field: domain  4 ,  6348384  bytes allocated
 d02 2016-02-05_12:00:00 *** Initializing nest domain # 4 from an input file. ***
 d02 2016-02-05_12:00:00 med_initialdata_input: calling input_input
Timing for processing wrfinput file (stream 0) for domain        4:    6.24392 elapsed seconds
 INPUT LandUse = "USGS"
  LANDUSE TYPE = "USGS" FOUND 33  CATEGORIES 2  SEASONS WATER CATEGORY =  16  SNOW CATEGORY =  24
 INITIALIZE THREE Noah LSM RELATED TABLES
  LANDUSE TYPE = USGS FOUND 27  CATEGORIES
  INPUT SOIL TEXTURE CLASSIFICATION = STAS
  SOIL TEXTURE CLASSIFICATION = STAS FOUND 19  CATEGORIES
 *********************************************************************
 *             PROGRAM:WRF/CHEM V3.6 MODEL
 *                                                                   *
 *    PLEASE REPORT ANY BUGS TO WRF/CHEM HELP at                     *
 *                                                                   *
 *              wrfchemhelp.gsd@noaa.gov                             *
 *                                                                   *
 *********************************************************************
 WARNING: dust option 1 currently works only with the GOCART aerosol option.
 WARNING: sea salt option 1 currently works only with the GOCART aerosol option.
 INPUT LandUse = "USGS"
  LANDUSE TYPE = "USGS" FOUND 33  CATEGORIES 2  SEASONS WATER CATEGORY =  16  SNOW CATEGORY =  24
 INITIALIZE THREE Noah LSM RELATED TABLES
  LANDUSE TYPE = USGS FOUND 27  CATEGORIES
  INPUT SOIL TEXTURE CLASSIFICATION = STAS
  SOIL TEXTURE CLASSIFICATION = STAS FOUND 19  CATEGORIES
 *********************************************************************
 *             PROGRAM:WRF/CHEM V3.6 MODEL
 *                                                                   *
 *    PLEASE REPORT ANY BUGS TO WRF/CHEM HELP at                     *
 *                                                                   *
 *              wrfchemhelp.gsd@noaa.gov                             *
 *                                                                   *
 *********************************************************************
 WARNING: dust option 1 currently works only with the GOCART aerosol option.
 WARNING: sea salt option 1 currently works only with the GOCART aerosol option.
 INPUT LandUse = "USGS"
  LANDUSE TYPE = "USGS" FOUND 33  CATEGORIES 2  SEASONS WATER CATEGORY =  16  SNOW CATEGORY =  24
 INITIALIZE THREE Noah LSM RELATED TABLES
  LANDUSE TYPE = USGS FOUND 27  CATEGORIES
  INPUT SOIL TEXTURE CLASSIFICATION = STAS
  SOIL TEXTURE CLASSIFICATION = STAS FOUND 19  CATEGORIES
 *********************************************************************
 *             PROGRAM:WRF/CHEM V3.6 MODEL
 *                                                                   *
 *    PLEASE REPORT ANY BUGS TO WRF/CHEM HELP at                     *
 *                                                                   *
 *              wrfchemhelp.gsd@noaa.gov                             *
 *                                                                   *
 *********************************************************************
 WARNING: dust option 1 currently works only with the GOCART aerosol option.
 WARNING: sea salt option 1 currently works only with the GOCART aerosol option.
Timing for Writing wrfout_d02_2016-02-05_12:00:00 for domain        2:    2.81335 elapsed seconds
  mediation_integrate: med_read_wrf_chem_emissions: Open file wrfchemi_12z_d02
  HOURLY EMISSIONS UPDATE TIME         .0        .0
 mediation_integrate: med_read_wrf_chem_emissions: Read emissions for time 2016-02-05_12:00:00
 **WARNING** Time in input file not being checked **WARNING**
  Tile Strategy is not specified. Assuming 1D-Y
 WRF TILE   1 IS      1 IE     18 JS      1 JE     13
 WRF NUMBER OF TILES =   1
  photolysis_driver: called for domain  2
Timing for Writing wrfout_d03_2016-02-05_12:00:00 for domain        3:    2.50809 elapsed seconds
  mediation_integrate: med_read_wrf_chem_emissions: Open file wrfchemi_12z_d03
  HOURLY EMISSIONS UPDATE TIME         .0        .0
 mediation_integrate: med_read_wrf_chem_emissions: Read emissions for time 2016-02-05_12:00:00
 **WARNING** Time in input file not being checked **WARNING**
  Tile Strategy is not specified. Assuming 1D-Y
 WRF TILE   1 IS      1 IE     16 JS      1 JE     12
 WRF NUMBER OF TILES =   1
  photolysis_driver: called for domain  3
Timing for main: time 2016-02-05_12:00:13 on domain   3:    4.62294 elapsed seconds
Timing for main: time 2016-02-05_12:00:26 on domain   3:     .11288 elapsed seconds
Timing for main: time 2016-02-05_12:00:40 on domain   3:     .09752 elapsed seconds
Timing for Writing wrfout_d04_2016-02-05_12:00:00 for domain        4:    2.81492 elapsed seconds
  mediation_integrate: med_read_wrf_chem_emissions: Open file wrfchemi_12z_d04
  HOURLY EMISSIONS UPDATE TIME         .0        .0
 mediation_integrate: med_read_wrf_chem_emissions: Read emissions for time 2016-02-05_12:00:00
 **WARNING** Time in input file not being checked **WARNING**
  Tile Strategy is not specified. Assuming 1D-Y
 WRF TILE   1 IS      1 IE     11 JS      1 JE     20
 WRF NUMBER OF TILES =   1
  photolysis_driver: called for domain  4
Timing for main: time 2016-02-05_12:00:20 on domain   4:    6.26891 elapsed seconds
Timing for main: time 2016-02-05_12:00:40 on domain   4:     .64576 elapsed seconds
Timing for main: time 2016-02-05_12:00:40 on domain   2:   30.26142 elapsed seconds
Timing for main: time 2016-02-05_12:00:53 on domain   3:     .10418 elapsed seconds
Timing for main: time 2016-02-05_12:01:06 on domain   3:     .08931 elapsed seconds
Timing for main: time 2016-02-05_12:01:20 on domain   3:     .09311 elapsed seconds
Timing for main: time 2016-02-05_12:01:00 on domain   4:     .13431 elapsed seconds
Timing for main: time 2016-02-05_12:01:20 on domain   4:     .12432 elapsed seconds
Timing for main: time 2016-02-05_12:01:20 on domain   2:    1.12440 elapsed seconds
Timing for main: time 2016-02-05_12:01:33 on domain   3:     .10259 elapsed seconds
Timing for main: time 2016-02-05_12:01:46 on domain   3:     .09712 elapsed seconds
Timing for main: time 2016-02-05_12:02:00 on domain   3:     .09678 elapsed seconds
Timing for main: time 2016-02-05_12:01:40 on domain   4:     .12605 elapsed seconds
Timing for main: time 2016-02-05_12:02:00 on domain   4:     .10754 elapsed seconds
Timing for main: time 2016-02-05_12:02:00 on domain   2:    1.20725 elapsed seconds
Timing for main: time 2016-02-05_12:02:00 on domain   1:   48.60184 elapsed seconds
Timing for main: time 2016-02-05_12:02:13 on domain   3:     .10186 elapsed seconds
Timing for main: time 2016-02-05_12:02:26 on domain   3:     .09578 elapsed seconds
Timing for main: time 2016-02-05_12:02:40 on domain   3:     .09142 elapsed seconds
Timing for main: time 2016-02-05_12:02:20 on domain   4:     .13088 elapsed seconds
Timing for main: time 2016-02-05_12:02:40 on domain   4:     .11516 elapsed seconds
Timing for main: time 2016-02-05_12:02:40 on domain   2:    1.05805 elapsed seconds
Timing for main: time 2016-02-05_12:02:53 on domain   3:     .10232 elapsed seconds
Timing for main: time 2016-02-05_12:03:06 on domain   3:     .09966 elapsed seconds
Timing for main: time 2016-02-05_12:03:20 on domain   3:     .09254 elapsed seconds
Timing for main: time 2016-02-05_12:03:00 on domain   4:     .12795 elapsed seconds
Timing for main: time 2016-02-05_12:03:20 on domain   4:     .11683 elapsed seconds
Timing for main: time 2016-02-05_12:03:20 on domain   2:    1.06222 elapsed seconds
Timing for main: time 2016-02-05_12:03:33 on domain   3:     .10461 elapsed seconds
Timing for main: time 2016-02-05_12:03:46 on domain   3:     .09651 elapsed seconds
Timing for main: time 2016-02-05_12:04:00 on domain   3:     .09795 elapsed seconds
Timing for main: time 2016-02-05_12:03:40 on domain   4:     .12631 elapsed seconds
Timing for main: time 2016-02-05_12:04:00 on domain   4:     .11733 elapsed seconds
Timing for main: time 2016-02-05_12:04:00 on domain   2:    1.06699 elapsed seconds
Timing for main: time 2016-02-05_12:04:00 on domain   1:    3.45857 elapsed seconds
Timing for main: time 2016-02-05_12:04:13 on domain   3:     .10577 elapsed seconds
Timing for main: time 2016-02-05_12:04:26 on domain   3:     .09944 elapsed seconds
Timing for main: time 2016-02-05_12:04:40 on domain   3:     .10072 elapsed seconds
Timing for main: time 2016-02-05_12:04:20 on domain   4:     .12986 elapsed seconds
Timing for main: time 2016-02-05_12:04:40 on domain   4:     .11659 elapsed seconds
Timing for main: time 2016-02-05_12:04:40 on domain   2:    1.06491 elapsed seconds
Timing for main: time 2016-02-05_12:04:53 on domain   3:     .10638 elapsed seconds
Timing for main: time 2016-02-05_12:05:06 on domain   3:     .10451 elapsed seconds
Timing for main: time 2016-02-05_12:05:20 on domain   3:     .09778 elapsed seconds
Timing for main: time 2016-02-05_12:05:00 on domain   4:     .14234 elapsed seconds
Timing for main: time 2016-02-05_12:05:20 on domain   4:     .12849 elapsed seconds
Timing for main: time 2016-02-05_12:05:20 on domain   2:    1.10855 elapsed seconds
Timing for main: time 2016-02-05_12:05:33 on domain   3:     .10378 elapsed seconds
Timing for main: time 2016-02-05_12:05:46 on domain   3:     .09834 elapsed seconds
Timing for main: time 2016-02-05_12:06:00 on domain   3:     .10127 elapsed seconds
Timing for main: time 2016-02-05_12:05:40 on domain   4:     .14104 elapsed seconds
Timing for main: time 2016-02-05_12:06:00 on domain   4:     .12150 elapsed seconds
Timing for main: time 2016-02-05_12:06:00 on domain   2:    1.11737 elapsed seconds
Timing for main: time 2016-02-05_12:06:00 on domain   1:    3.57682 elapsed seconds
Timing for main: time 2016-02-05_12:06:13 on domain   3:     .10496 elapsed seconds
Timing for main: time 2016-02-05_12:06:26 on domain   3:     .09785 elapsed seconds
Timing for main: time 2016-02-05_12:06:40 on domain   3:     .09475 elapsed seconds
Timing for main: time 2016-02-05_12:06:20 on domain   4:     .12958 elapsed seconds
Timing for main: time 2016-02-05_12:06:40 on domain   4:     .11846 elapsed seconds
Timing for main: time 2016-02-05_12:06:40 on domain   2:    1.06050 elapsed seconds
Timing for main: time 2016-02-05_12:06:53 on domain   3:     .10418 elapsed seconds
Timing for main: time 2016-02-05_12:07:06 on domain   3:     .09839 elapsed seconds
Timing for main: time 2016-02-05_12:07:20 on domain   3:     .09729 elapsed seconds
Timing for main: time 2016-02-05_12:07:00 on domain   4:     .13107 elapsed seconds
Timing for main: time 2016-02-05_12:07:20 on domain   4:     .11823 elapsed seconds
Timing for main: time 2016-02-05_12:07:20 on domain   2:    1.07085 elapsed seconds
Timing for main: time 2016-02-05_12:07:33 on domain   3:     .10708 elapsed seconds
Timing for main: time 2016-02-05_12:07:46 on domain   3:     .09337 elapsed seconds
Timing for main: time 2016-02-05_12:08:00 on domain   3:     .10142 elapsed seconds
Timing for main: time 2016-02-05_12:07:40 on domain   4:     .13130 elapsed seconds
Timing for main: time 2016-02-05_12:08:00 on domain   4:     .11915 elapsed seconds
Timing for main: time 2016-02-05_12:08:00 on domain   2:    1.07614 elapsed seconds
Timing for main: time 2016-02-05_12:08:00 on domain   1:    3.49671 elapsed seconds
Timing for main: time 2016-02-05_12:08:13 on domain   3:     .11085 elapsed seconds
Timing for main: time 2016-02-05_12:08:26 on domain   3:     .09129 elapsed seconds
Timing for main: time 2016-02-05_12:08:40 on domain   3:     .09335 elapsed seconds
Timing for main: time 2016-02-05_12:08:20 on domain   4:     .14245 elapsed seconds
Timing for main: time 2016-02-05_12:08:40 on domain   4:     .15131 elapsed seconds
Timing for main: time 2016-02-05_12:08:40 on domain   2:    1.10730 elapsed seconds
Timing for main: time 2016-02-05_12:08:53 on domain   3:     .10444 elapsed seconds
Timing for main: time 2016-02-05_12:09:06 on domain   3:     .09760 elapsed seconds
Timing for main: time 2016-02-05_12:09:20 on domain   3:     .09289 elapsed seconds
Timing for main: time 2016-02-05_12:09:00 on domain   4:     .14094 elapsed seconds
Timing for main: time 2016-02-05_12:09:20 on domain   4:     .13041 elapsed seconds
Timing for main: time 2016-02-05_12:09:20 on domain   2:    1.09175 elapsed seconds
Timing for main: time 2016-02-05_12:09:33 on domain   3:     .10702 elapsed seconds
Timing for main: time 2016-02-05_12:09:46 on domain   3:     .09861 elapsed seconds
Timing for main: time 2016-02-05_12:10:00 on domain   3:     .09551 elapsed seconds
Timing for main: time 2016-02-05_12:09:40 on domain   4:     .12641 elapsed seconds
Timing for main: time 2016-02-05_12:10:00 on domain   4:     .12448 elapsed seconds
Timing for main: time 2016-02-05_12:10:00 on domain   2:    1.07473 elapsed seconds
Timing for main: time 2016-02-05_12:10:00 on domain   1:    3.55716 elapsed seconds
Timing for main: time 2016-02-05_12:10:13 on domain   3:     .10774 elapsed seconds
Timing for main: time 2016-02-05_12:10:26 on domain   3:     .09671 elapsed seconds
Timing for main: time 2016-02-05_12:10:40 on domain   3:     .09669 elapsed seconds
Timing for main: time 2016-02-05_12:10:20 on domain   4:     .12934 elapsed seconds
Timing for main: time 2016-02-05_12:10:40 on domain   4:     .11424 elapsed seconds
Timing for main: time 2016-02-05_12:10:40 on domain   2:    1.07168 elapsed seconds
Timing for main: time 2016-02-05_12:10:53 on domain   3:     .10199 elapsed seconds
Timing for main: time 2016-02-05_12:11:06 on domain   3:     .09554 elapsed seconds
Timing for main: time 2016-02-05_12:11:20 on domain   3:     .09909 elapsed seconds
Timing for main: time 2016-02-05_12:11:00 on domain   4:     .12778 elapsed seconds
Timing for main: time 2016-02-05_12:11:20 on domain   4:     .11924 elapsed seconds
Timing for main: time 2016-02-05_12:11:20 on domain   2:    1.06870 elapsed seconds
Timing for main: time 2016-02-05_12:11:33 on domain   3:     .10189 elapsed seconds
Timing for main: time 2016-02-05_12:11:46 on domain   3:     .10375 elapsed seconds
Timing for main: time 2016-02-05_12:12:00 on domain   3:     .09373 elapsed seconds
Timing for main: time 2016-02-05_12:11:40 on domain   4:     .12836 elapsed seconds
Timing for main: time 2016-02-05_12:12:00 on domain   4:     .11835 elapsed seconds
Timing for main: time 2016-02-05_12:12:00 on domain   2:    1.06856 elapsed seconds
Timing for main: time 2016-02-05_12:12:00 on domain   1:    3.49882 elapsed seconds
Timing for main: time 2016-02-05_12:12:13 on domain   3:     .10505 elapsed seconds
Timing for main: time 2016-02-05_12:12:26 on domain   3:     .09560 elapsed seconds
Timing for main: time 2016-02-05_12:12:40 on domain   3:     .10397 elapsed seconds
Timing for main: time 2016-02-05_12:12:20 on domain   4:     .12767 elapsed seconds
Timing for main: time 2016-02-05_12:12:40 on domain   4:     .11506 elapsed seconds
Timing for main: time 2016-02-05_12:12:40 on domain   2:    1.06271 elapsed seconds
Timing for main: time 2016-02-05_12:12:53 on domain   3:     .10436 elapsed seconds
Timing for main: time 2016-02-05_12:13:06 on domain   3:     .09367 elapsed seconds
Timing for main: time 2016-02-05_12:13:20 on domain   3:     .09302 elapsed seconds
Timing for main: time 2016-02-05_12:13:00 on domain   4:     .12611 elapsed seconds
Timing for main: time 2016-02-05_12:13:20 on domain   4:     .11296 elapsed seconds
Timing for main: time 2016-02-05_12:13:20 on domain   2:    1.04920 elapsed seconds
Timing for main: time 2016-02-05_12:13:33 on domain   3:     .10185 elapsed seconds
Timing for main: time 2016-02-05_12:13:46 on domain   3:     .09201 elapsed seconds
Timing for main: time 2016-02-05_12:14:00 on domain   3:     .09183 elapsed seconds
Timing for main: time 2016-02-05_12:13:40 on domain   4:     .12647 elapsed seconds
Timing for main: time 2016-02-05_12:14:00 on domain   4:     .11558 elapsed seconds
Timing for main: time 2016-02-05_12:14:00 on domain   2:    1.04701 elapsed seconds
Timing for main: time 2016-02-05_12:14:00 on domain   1:    3.44515 elapsed seconds
Timing for main: time 2016-02-05_12:14:13 on domain   3:     .10204 elapsed seconds
Timing for main: time 2016-02-05_12:14:26 on domain   3:     .09174 elapsed seconds
Timing for main: time 2016-02-05_12:14:40 on domain   3:     .09343 elapsed seconds
Timing for main: time 2016-02-05_12:14:20 on domain   4:     .12574 elapsed seconds
Timing for main: time 2016-02-05_12:14:40 on domain   4:     .11301 elapsed seconds
Timing for main: time 2016-02-05_12:14:40 on domain   2:    1.04112 elapsed seconds
Timing for main: time 2016-02-05_12:14:53 on domain   3:     .10264 elapsed seconds
Timing for main: time 2016-02-05_12:15:06 on domain   3:     .09100 elapsed seconds
Timing for main: time 2016-02-05_12:15:20 on domain   3:     .09499 elapsed seconds
Timing for main: time 2016-02-05_12:15:00 on domain   4:     .13024 elapsed seconds
Timing for main: time 2016-02-05_12:15:20 on domain   4:     .11246 elapsed seconds
Timing for main: time 2016-02-05_12:15:20 on domain   2:    1.04955 elapsed seconds
Timing for main: time 2016-02-05_12:15:33 on domain   3:     .10280 elapsed seconds
Timing for main: time 2016-02-05_12:15:46 on domain   3:     .09103 elapsed seconds
Timing for main: time 2016-02-05_12:16:00 on domain   3:     .09069 elapsed seconds
Timing for main: time 2016-02-05_12:15:40 on domain   4:     .12662 elapsed seconds
Timing for main: time 2016-02-05_12:16:00 on domain   4:     .11285 elapsed seconds
Timing for main: time 2016-02-05_12:16:00 on domain   2:    1.04825 elapsed seconds
Timing for main: time 2016-02-05_12:16:00 on domain   1:    3.41839 elapsed seconds
Timing for main: time 2016-02-05_12:16:13 on domain   3:     .10273 elapsed seconds
Timing for main: time 2016-02-05_12:16:26 on domain   3:     .09112 elapsed seconds
Timing for main: time 2016-02-05_12:16:40 on domain   3:     .09189 elapsed seconds
Timing for main: time 2016-02-05_12:16:20 on domain   4:     .12458 elapsed seconds
Timing for main: time 2016-02-05_12:16:40 on domain   4:     .11261 elapsed seconds
Timing for main: time 2016-02-05_12:16:40 on domain   2:    1.03861 elapsed seconds
Timing for main: time 2016-02-05_12:16:53 on domain   3:     .10222 elapsed seconds
Timing for main: time 2016-02-05_12:17:06 on domain   3:     .09182 elapsed seconds
Timing for main: time 2016-02-05_12:17:20 on domain   3:     .09157 elapsed seconds
Timing for main: time 2016-02-05_12:17:00 on domain   4:     .12596 elapsed seconds
Timing for main: time 2016-02-05_12:17:20 on domain   4:     .11331 elapsed seconds
Timing for main: time 2016-02-05_12:17:20 on domain   2:    1.04404 elapsed seconds
Timing for main: time 2016-02-05_12:17:33 on domain   3:     .10287 elapsed seconds
Timing for main: time 2016-02-05_12:17:46 on domain   3:     .09121 elapsed seconds
Timing for main: time 2016-02-05_12:18:00 on domain   3:     .09105 elapsed seconds
Timing for main: time 2016-02-05_12:17:40 on domain   4:     .12603 elapsed seconds
Timing for main: time 2016-02-05_12:18:00 on domain   4:     .11317 elapsed seconds
Timing for main: time 2016-02-05_12:18:00 on domain   2:    1.04304 elapsed seconds
Timing for main: time 2016-02-05_12:18:00 on domain   1:    3.41063 elapsed seconds
Timing for main: time 2016-02-05_12:18:13 on domain   3:     .10206 elapsed seconds
Timing for main: time 2016-02-05_12:18:26 on domain   3:     .09212 elapsed seconds
Timing for main: time 2016-02-05_12:18:40 on domain   3:     .09154 elapsed seconds
Timing for main: time 2016-02-05_12:18:20 on domain   4:     .12659 elapsed seconds
Timing for main: time 2016-02-05_12:18:40 on domain   4:     .11242 elapsed seconds
Timing for main: time 2016-02-05_12:18:40 on domain   2:    1.03915 elapsed seconds
Timing for main: time 2016-02-05_12:18:53 on domain   3:     .10191 elapsed seconds
Timing for main: time 2016-02-05_12:19:06 on domain   3:     .09138 elapsed seconds
Timing for main: time 2016-02-05_12:19:20 on domain   3:     .11281 elapsed seconds
Timing for main: time 2016-02-05_12:19:00 on domain   4:     .12620 elapsed seconds
Timing for main: time 2016-02-05_12:19:20 on domain   4:     .12304 elapsed seconds
Timing for main: time 2016-02-05_12:19:20 on domain   2:    1.12585 elapsed seconds
Timing for main: time 2016-02-05_12:19:33 on domain   3:     .10419 elapsed seconds
Timing for main: time 2016-02-05_12:19:46 on domain   3:     .09073 elapsed seconds
Timing for main: time 2016-02-05_12:20:00 on domain   3:     .09179 elapsed seconds
Timing for main: time 2016-02-05_12:19:40 on domain   4:     .12598 elapsed seconds
Timing for main: time 2016-02-05_12:20:00 on domain   4:     .11710 elapsed seconds
Timing for main: time 2016-02-05_12:20:00 on domain   2:    1.04512 elapsed seconds
Timing for main: time 2016-02-05_12:20:00 on domain   1:    3.50190 elapsed seconds
Timing for main: time 2016-02-05_12:20:13 on domain   3:     .10268 elapsed seconds
Timing for main: time 2016-02-05_12:20:26 on domain   3:     .09566 elapsed seconds
Timing for main: time 2016-02-05_12:20:40 on domain   3:     .09104 elapsed seconds
Timing for main: time 2016-02-05_12:20:20 on domain   4:     .12631 elapsed seconds
Timing for main: time 2016-02-05_12:20:40 on domain   4:     .11297 elapsed seconds
Timing for main: time 2016-02-05_12:20:40 on domain   2:    1.04306 elapsed seconds
Timing for main: time 2016-02-05_12:20:53 on domain   3:     .10157 elapsed seconds
Timing for main: time 2016-02-05_12:21:06 on domain   3:     .09351 elapsed seconds
Timing for main: time 2016-02-05_12:21:20 on domain   3:     .09197 elapsed seconds
Timing for main: time 2016-02-05_12:21:00 on domain   4:     .12596 elapsed seconds
Timing for main: time 2016-02-05_12:21:20 on domain   4:     .11333 elapsed seconds
Timing for main: time 2016-02-05_12:21:20 on domain   2:    1.05035 elapsed seconds
Timing for main: time 2016-02-05_12:21:33 on domain   3:     .10240 elapsed seconds
Timing for main: time 2016-02-05_12:21:46 on domain   3:     .09505 elapsed seconds
Timing for main: time 2016-02-05_12:22:00 on domain   3:     .09107 elapsed seconds
Timing for main: time 2016-02-05_12:21:40 on domain   4:     .12633 elapsed seconds
Timing for main: time 2016-02-05_12:22:00 on domain   4:     .11298 elapsed seconds
Timing for main: time 2016-02-05_12:22:00 on domain   2:    1.04680 elapsed seconds
Timing for main: time 2016-02-05_12:22:00 on domain   1:    3.41970 elapsed seconds
Timing for main: time 2016-02-05_12:22:13 on domain   3:     .11352 elapsed seconds
Timing for main: time 2016-02-05_12:22:26 on domain   3:     .11362 elapsed seconds
Timing for main: time 2016-02-05_12:22:40 on domain   3:     .09135 elapsed seconds
Timing for main: time 2016-02-05_12:22:20 on domain   4:     .12659 elapsed seconds
Timing for main: time 2016-02-05_12:22:40 on domain   4:     .11190 elapsed seconds
Timing for main: time 2016-02-05_12:22:40 on domain   2:    1.07420 elapsed seconds
Timing for main: time 2016-02-05_12:22:53 on domain   3:     .10396 elapsed seconds
Timing for main: time 2016-02-05_12:23:06 on domain   3:     .08973 elapsed seconds
Timing for main: time 2016-02-05_12:23:20 on domain   3:     .09138 elapsed seconds
Timing for main: time 2016-02-05_12:23:00 on domain   4:     .12629 elapsed seconds
Timing for main: time 2016-02-05_12:23:20 on domain   4:     .11202 elapsed seconds
Timing for main: time 2016-02-05_12:23:20 on domain   2:    1.04270 elapsed seconds
Timing for main: time 2016-02-05_12:23:33 on domain   3:     .10241 elapsed seconds
Timing for main: time 2016-02-05_12:23:46 on domain   3:     .09179 elapsed seconds
Timing for main: time 2016-02-05_12:24:00 on domain   3:     .09166 elapsed seconds
Timing for main: time 2016-02-05_12:23:40 on domain   4:     .12630 elapsed seconds
Timing for main: time 2016-02-05_12:24:00 on domain   4:     .11316 elapsed seconds
Timing for main: time 2016-02-05_12:24:00 on domain   2:    1.04204 elapsed seconds
Timing for main: time 2016-02-05_12:24:00 on domain   1:    3.44130 elapsed seconds
Timing for main: time 2016-02-05_12:24:13 on domain   3:     .10280 elapsed seconds
Timing for main: time 2016-02-05_12:24:26 on domain   3:     .09121 elapsed seconds
Timing for main: time 2016-02-05_12:24:40 on domain   3:     .09172 elapsed seconds
Timing for main: time 2016-02-05_12:24:20 on domain   4:     .12627 elapsed seconds
Timing for main: time 2016-02-05_12:24:40 on domain   4:     .11261 elapsed seconds
Timing for main: time 2016-02-05_12:24:40 on domain   2:    1.04051 elapsed seconds
Timing for main: time 2016-02-05_12:24:53 on domain   3:     .10250 elapsed seconds
Timing for main: time 2016-02-05_12:25:06 on domain   3:     .09167 elapsed seconds
Timing for main: time 2016-02-05_12:25:20 on domain   3:     .09159 elapsed seconds
Timing for main: time 2016-02-05_12:25:00 on domain   4:     .13077 elapsed seconds
Timing for main: time 2016-02-05_12:25:20 on domain   4:     .11333 elapsed seconds
Timing for main: time 2016-02-05_12:25:20 on domain   2:    1.04723 elapsed seconds
Timing for main: time 2016-02-05_12:25:33 on domain   3:     .10652 elapsed seconds
Timing for main: time 2016-02-05_12:25:46 on domain   3:     .09148 elapsed seconds
Timing for main: time 2016-02-05_12:26:00 on domain   3:     .09188 elapsed seconds
Timing for main: time 2016-02-05_12:25:40 on domain   4:     .12614 elapsed seconds
Timing for main: time 2016-02-05_12:26:00 on domain   4:     .11271 elapsed seconds
Timing for main: time 2016-02-05_12:26:00 on domain   2:    1.04735 elapsed seconds
Timing for main: time 2016-02-05_12:26:00 on domain   1:    3.41340 elapsed seconds
Timing for main: time 2016-02-05_12:26:13 on domain   3:     .10245 elapsed seconds
Timing for main: time 2016-02-05_12:26:26 on domain   3:     .12167 elapsed seconds
Timing for main: time 2016-02-05_12:26:40 on domain   3:     .13322 elapsed seconds
Timing for main: time 2016-02-05_12:26:20 on domain   4:     .13327 elapsed seconds
Timing for main: time 2016-02-05_12:26:40 on domain   4:     .11462 elapsed seconds
Timing for main: time 2016-02-05_12:26:40 on domain   2:    1.14780 elapsed seconds
Timing for main: time 2016-02-05_12:26:53 on domain   3:     .10245 elapsed seconds
Timing for main: time 2016-02-05_12:27:06 on domain   3:     .09138 elapsed seconds
Timing for main: time 2016-02-05_12:27:20 on domain   3:     .09171 elapsed seconds
Timing for main: time 2016-02-05_12:27:00 on domain   4:     .12582 elapsed seconds
Timing for main: time 2016-02-05_12:27:20 on domain   4:     .11247 elapsed seconds
Timing for main: time 2016-02-05_12:27:20 on domain   2:    1.04061 elapsed seconds
Timing for main: time 2016-02-05_12:27:33 on domain   3:     .10281 elapsed seconds
Timing for main: time 2016-02-05_12:27:46 on domain   3:     .09146 elapsed seconds
Timing for main: time 2016-02-05_12:28:00 on domain   3:     .09131 elapsed seconds
Timing for main: time 2016-02-05_12:27:40 on domain   4:     .12679 elapsed seconds
Timing for main: time 2016-02-05_12:28:00 on domain   4:     .11251 elapsed seconds
Timing for main: time 2016-02-05_12:28:00 on domain   2:    1.04211 elapsed seconds
Timing for main: time 2016-02-05_12:28:00 on domain   1:    3.50951 elapsed seconds
  photolysis_driver: called for domain  1
Timing for main: time 2016-02-05_12:28:13 on domain   3:     .10271 elapsed seconds
Timing for main: time 2016-02-05_12:28:26 on domain   3:     .09113 elapsed seconds
Timing for main: time 2016-02-05_12:28:40 on domain   3:     .09124 elapsed seconds
Timing for main: time 2016-02-05_12:28:20 on domain   4:     .12631 elapsed seconds
Timing for main: time 2016-02-05_12:28:40 on domain   4:     .11278 elapsed seconds
Timing for main: time 2016-02-05_12:28:40 on domain   2:    1.03821 elapsed seconds
Timing for main: time 2016-02-05_12:28:53 on domain   3:     .10281 elapsed seconds
Timing for main: time 2016-02-05_12:29:06 on domain   3:     .09304 elapsed seconds
Timing for main: time 2016-02-05_12:29:20 on domain   3:     .09273 elapsed seconds
Timing for main: time 2016-02-05_12:29:00 on domain   4:     .12655 elapsed seconds
Timing for main: time 2016-02-05_12:29:20 on domain   4:     .11171 elapsed seconds
Timing for main: time 2016-02-05_12:29:20 on domain   2:    1.04377 elapsed seconds
  photolysis_driver: called for domain  2
Timing for main: time 2016-02-05_12:29:33 on domain   3:     .10245 elapsed seconds
Timing for main: time 2016-02-05_12:29:46 on domain   3:     .09176 elapsed seconds
  photolysis_driver: called for domain  3
Timing for main: time 2016-02-05_12:30:00 on domain   3:     .45088 elapsed seconds
Timing for main: time 2016-02-05_12:29:40 on domain   4:     .12643 elapsed seconds
  photolysis_driver: called for domain  4
Timing for main: time 2016-02-05_12:30:00 on domain   4:     .52312 elapsed seconds
Timing for main: time 2016-02-05_12:30:00 on domain   2:    2.25251 elapsed seconds
Timing for main: time 2016-02-05_12:30:00 on domain   1:    4.87823 elapsed seconds
Timing for main: time 2016-02-05_12:30:13 on domain   3:     .17437 elapsed seconds
Timing for main: time 2016-02-05_12:30:26 on domain   3:     .09245 elapsed seconds
Timing for main: time 2016-02-05_12:30:40 on domain   3:     .09436 elapsed seconds
Timing for main: time 2016-02-05_12:30:20 on domain   4:     .20941 elapsed seconds
Timing for main: time 2016-02-05_12:30:40 on domain   4:     .11153 elapsed seconds
Timing for main: time 2016-02-05_12:30:40 on domain   2:    1.28662 elapsed seconds
Timing for main: time 2016-02-05_12:30:53 on domain   3:     .10216 elapsed seconds
Timing for main: time 2016-02-05_12:31:06 on domain   3:     .09121 elapsed seconds
Timing for main: time 2016-02-05_12:31:20 on domain   3:     .09088 elapsed seconds
Timing for main: time 2016-02-05_12:31:00 on domain   4:     .12526 elapsed seconds
Timing for main: time 2016-02-05_12:31:20 on domain   4:     .11172 elapsed seconds
Timing for main: time 2016-02-05_12:31:20 on domain   2:    1.03891 elapsed seconds
Timing for main: time 2016-02-05_12:31:33 on domain   3:     .10150 elapsed seconds
Timing for main: time 2016-02-05_12:31:46 on domain   3:     .09529 elapsed seconds
Timing for main: time 2016-02-05_12:32:00 on domain   3:     .09154 elapsed seconds
Timing for main: time 2016-02-05_12:31:40 on domain   4:     .12610 elapsed seconds
Timing for main: time 2016-02-05_12:32:00 on domain   4:     .11337 elapsed seconds
Timing for main: time 2016-02-05_12:32:00 on domain   2:    1.04827 elapsed seconds
Timing for main: time 2016-02-05_12:32:00 on domain   1:    3.71907 elapsed seconds
Timing for main: time 2016-02-05_12:32:13 on domain   3:     .10237 elapsed seconds
Timing for main: time 2016-02-05_12:32:26 on domain   3:     .09093 elapsed seconds
Timing for main: time 2016-02-05_12:32:40 on domain   3:     .09109 elapsed seconds
Timing for main: time 2016-02-05_12:32:20 on domain   4:     .12557 elapsed seconds
Timing for main: time 2016-02-05_12:32:40 on domain   4:     .11198 elapsed seconds
Timing for main: time 2016-02-05_12:32:40 on domain   2:    1.03504 elapsed seconds
Timing for main: time 2016-02-05_12:32:53 on domain   3:     .10406 elapsed seconds
Timing for main: time 2016-02-05_12:33:06 on domain   3:     .08910 elapsed seconds
Timing for main: time 2016-02-05_12:33:20 on domain   3:     .09105 elapsed seconds
Timing for main: time 2016-02-05_12:33:00 on domain   4:     .12571 elapsed seconds
Timing for main: time 2016-02-05_12:33:20 on domain   4:     .11256 elapsed seconds
Timing for main: time 2016-02-05_12:33:20 on domain   2:    1.03910 elapsed seconds
Timing for main: time 2016-02-05_12:33:33 on domain   3:     .10373 elapsed seconds
Timing for main: time 2016-02-05_12:33:46 on domain   3:     .09149 elapsed seconds
Timing for main: time 2016-02-05_12:34:00 on domain   3:     .10031 elapsed seconds
Timing for main: time 2016-02-05_12:33:40 on domain   4:     .12614 elapsed seconds
Timing for main: time 2016-02-05_12:34:00 on domain   4:     .11139 elapsed seconds
Timing for main: time 2016-02-05_12:34:00 on domain   2:    1.07678 elapsed seconds
Timing for main: time 2016-02-05_12:34:00 on domain   1:    3.42987 elapsed seconds
Timing for main: time 2016-02-05_12:34:13 on domain   3:     .10141 elapsed seconds
Timing for main: time 2016-02-05_12:34:26 on domain   3:     .09118 elapsed seconds
Timing for main: time 2016-02-05_12:34:40 on domain   3:     .09685 elapsed seconds
Timing for main: time 2016-02-05_12:34:20 on domain   4:     .12612 elapsed seconds
Timing for main: time 2016-02-05_12:34:40 on domain   4:     .14632 elapsed seconds
Timing for main: time 2016-02-05_12:34:40 on domain   2:    1.07313 elapsed seconds
Timing for main: time 2016-02-05_12:34:53 on domain   3:     .10144 elapsed seconds
Timing for main: time 2016-02-05_12:35:06 on domain   3:     .09100 elapsed seconds
Timing for main: time 2016-02-05_12:35:20 on domain   3:     .09035 elapsed seconds
Timing for main: time 2016-02-05_12:35:00 on domain   4:     .12998 elapsed seconds
Timing for main: time 2016-02-05_12:35:20 on domain   4:     .11221 elapsed seconds
Timing for main: time 2016-02-05_12:35:20 on domain   2:    1.07648 elapsed seconds
Timing for main: time 2016-02-05_12:35:33 on domain   3:     .10247 elapsed seconds
Timing for main: time 2016-02-05_12:35:46 on domain   3:     .09445 elapsed seconds
Timing for main: time 2016-02-05_12:36:00 on domain   3:     .09086 elapsed seconds
Timing for main: time 2016-02-05_12:35:40 on domain   4:     .12709 elapsed seconds
Timing for main: time 2016-02-05_12:36:00 on domain   4:     .11242 elapsed seconds
Timing for main: time 2016-02-05_12:36:00 on domain   2:    1.04446 elapsed seconds
Timing for main: time 2016-02-05_12:36:00 on domain   1:    3.47594 elapsed seconds
Timing for main: time 2016-02-05_12:36:13 on domain   3:     .10193 elapsed seconds
Timing for main: time 2016-02-05_12:36:26 on domain   3:     .09115 elapsed seconds
Timing for main: time 2016-02-05_12:36:40 on domain   3:     .09137 elapsed seconds
Timing for main: time 2016-02-05_12:36:20 on domain   4:     .12597 elapsed seconds
Timing for main: time 2016-02-05_12:36:40 on domain   4:     .11277 elapsed seconds
Timing for main: time 2016-02-05_12:36:40 on domain   2:    1.03631 elapsed seconds
Timing for main: time 2016-02-05_12:36:53 on domain   3:     .10205 elapsed seconds
Timing for main: time 2016-02-05_12:37:06 on domain   3:     .09106 elapsed seconds
Timing for main: time 2016-02-05_12:37:20 on domain   3:     .09005 elapsed seconds
Timing for main: time 2016-02-05_12:37:00 on domain   4:     .12598 elapsed seconds
Timing for main: time 2016-02-05_12:37:20 on domain   4:     .11342 elapsed seconds
Timing for main: time 2016-02-05_12:37:20 on domain   2:    1.04543 elapsed seconds
Timing for main: time 2016-02-05_12:37:33 on domain   3:     .10200 elapsed seconds
Timing for main: time 2016-02-05_12:37:46 on domain   3:     .09125 elapsed seconds
Timing for main: time 2016-02-05_12:38:00 on domain   3:     .09117 elapsed seconds
Timing for main: time 2016-02-05_12:37:40 on domain   4:     .12591 elapsed seconds
Timing for main: time 2016-02-05_12:38:00 on domain   4:     .11232 elapsed seconds
Timing for main: time 2016-02-05_12:38:00 on domain   2:    1.03957 elapsed seconds
Timing for main: time 2016-02-05_12:38:00 on domain   1:    3.40008 elapsed seconds
Timing for main: time 2016-02-05_12:38:13 on domain   3:     .10258 elapsed seconds
Timing for main: time 2016-02-05_12:38:26 on domain   3:     .08856 elapsed seconds
Timing for main: time 2016-02-05_12:38:40 on domain   3:     .09123 elapsed seconds
Timing for main: time 2016-02-05_12:38:20 on domain   4:     .12538 elapsed seconds
Timing for main: time 2016-02-05_12:38:40 on domain   4:     .11008 elapsed seconds
Timing for main: time 2016-02-05_12:38:40 on domain   2:    1.09843 elapsed seconds
Timing for main: time 2016-02-05_12:38:53 on domain   3:     .10273 elapsed seconds
Timing for main: time 2016-02-05_12:39:06 on domain   3:     .09071 elapsed seconds
Timing for main: time 2016-02-05_12:39:20 on domain   3:     .09141 elapsed seconds
Timing for main: time 2016-02-05_12:39:00 on domain   4:     .12605 elapsed seconds
Timing for main: time 2016-02-05_12:39:20 on domain   4:     .11206 elapsed seconds
Timing for main: time 2016-02-05_12:39:20 on domain   2:    1.04345 elapsed seconds
Timing for main: time 2016-02-05_12:39:33 on domain   3:     .10203 elapsed seconds
Timing for main: time 2016-02-05_12:39:46 on domain   3:     .09204 elapsed seconds
Timing for main: time 2016-02-05_12:40:00 on domain   3:     .09162 elapsed seconds
Timing for main: time 2016-02-05_12:39:40 on domain   4:     .12538 elapsed seconds
Timing for main: time 2016-02-05_12:40:00 on domain   4:     .11803 elapsed seconds
Timing for main: time 2016-02-05_12:40:00 on domain   2:    1.04734 elapsed seconds
Timing for main: time 2016-02-05_12:40:00 on domain   1:    3.46833 elapsed seconds
Timing for main: time 2016-02-05_12:40:13 on domain   3:     .10261 elapsed seconds
Timing for main: time 2016-02-05_12:40:26 on domain   3:     .09089 elapsed seconds
Timing for main: time 2016-02-05_12:40:40 on domain   3:     .09176 elapsed seconds
Timing for main: time 2016-02-05_12:40:20 on domain   4:     .12521 elapsed seconds
Timing for main: time 2016-02-05_12:40:40 on domain   4:     .11062 elapsed seconds
Timing for main: time 2016-02-05_12:40:40 on domain   2:    1.03672 elapsed seconds
Timing for main: time 2016-02-05_12:40:53 on domain   3:     .10621 elapsed seconds
Timing for main: time 2016-02-05_12:41:06 on domain   3:     .09142 elapsed seconds
Timing for main: time 2016-02-05_12:41:20 on domain   3:     .09215 elapsed seconds
Timing for main: time 2016-02-05_12:41:00 on domain   4:     .12537 elapsed seconds
Timing for main: time 2016-02-05_12:41:20 on domain   4:     .11056 elapsed seconds
Timing for main: time 2016-02-05_12:41:20 on domain   2:    1.04608 elapsed seconds
Timing for main: time 2016-02-05_12:41:33 on domain   3:     .10249 elapsed seconds
Timing for main: time 2016-02-05_12:41:46 on domain   3:     .09048 elapsed seconds
Timing for main: time 2016-02-05_12:42:00 on domain   3:     .09155 elapsed seconds
Timing for main: time 2016-02-05_12:41:40 on domain   4:     .12525 elapsed seconds
Timing for main: time 2016-02-05_12:42:00 on domain   4:     .10991 elapsed seconds
Timing for main: time 2016-02-05_12:42:00 on domain   2:    1.03926 elapsed seconds
Timing for main: time 2016-02-05_12:42:00 on domain   1:    3.40595 elapsed seconds
Timing for main: time 2016-02-05_12:42:13 on domain   3:     .10223 elapsed seconds
Timing for main: time 2016-02-05_12:42:26 on domain   3:     .08879 elapsed seconds
Timing for main: time 2016-02-05_12:42:40 on domain   3:     .09147 elapsed seconds
Timing for main: time 2016-02-05_12:42:20 on domain   4:     .12626 elapsed seconds
Timing for main: time 2016-02-05_12:42:40 on domain   4:     .11232 elapsed seconds
Timing for main: time 2016-02-05_12:42:40 on domain   2:    1.04209 elapsed seconds
Timing for main: time 2016-02-05_12:42:53 on domain   3:     .10219 elapsed seconds
Timing for main: time 2016-02-05_12:43:06 on domain   3:     .08914 elapsed seconds
Timing for main: time 2016-02-05_12:43:20 on domain   3:     .09084 elapsed seconds
Timing for main: time 2016-02-05_12:43:00 on domain   4:     .12892 elapsed seconds
Timing for main: time 2016-02-05_12:43:20 on domain   4:     .11448 elapsed seconds
Timing for main: time 2016-02-05_12:43:20 on domain   2:    1.04636 elapsed seconds
Timing for main: time 2016-02-05_12:43:33 on domain   3:     .10495 elapsed seconds
Timing for main: time 2016-02-05_12:43:46 on domain   3:     .08940 elapsed seconds
Timing for main: time 2016-02-05_12:44:00 on domain   3:     .09475 elapsed seconds
Timing for main: time 2016-02-05_12:43:40 on domain   4:     .12581 elapsed seconds
Timing for main: time 2016-02-05_12:44:00 on domain   4:     .11271 elapsed seconds
Timing for main: time 2016-02-05_12:44:00 on domain   2:    1.06677 elapsed seconds
Timing for main: time 2016-02-05_12:44:00 on domain   1:    3.43465 elapsed seconds
Timing for main: time 2016-02-05_12:44:13 on domain   3:     .10232 elapsed seconds
Timing for main: time 2016-02-05_12:44:26 on domain   3:     .08895 elapsed seconds
Timing for main: time 2016-02-05_12:44:40 on domain   3:     .09211 elapsed seconds
Timing for main: time 2016-02-05_12:44:20 on domain   4:     .12519 elapsed seconds
Timing for main: time 2016-02-05_12:44:40 on domain   4:     .11224 elapsed seconds
Timing for main: time 2016-02-05_12:44:40 on domain   2:    1.03718 elapsed seconds
Timing for main: time 2016-02-05_12:44:53 on domain   3:     .10266 elapsed seconds
Timing for main: time 2016-02-05_12:45:06 on domain   3:     .09091 elapsed seconds
Timing for main: time 2016-02-05_12:45:20 on domain   3:     .09116 elapsed seconds
Timing for main: time 2016-02-05_12:45:00 on domain   4:     .13029 elapsed seconds
Timing for main: time 2016-02-05_12:45:20 on domain   4:     .11188 elapsed seconds
Timing for main: time 2016-02-05_12:45:20 on domain   2:    1.04597 elapsed seconds
Timing for main: time 2016-02-05_12:45:33 on domain   3:     .10250 elapsed seconds
Timing for main: time 2016-02-05_12:45:46 on domain   3:     .09053 elapsed seconds
Timing for main: time 2016-02-05_12:46:00 on domain   3:     .09470 elapsed seconds
Timing for main: time 2016-02-05_12:45:40 on domain   4:     .13238 elapsed seconds
Timing for main: time 2016-02-05_12:46:00 on domain   4:     .13235 elapsed seconds
Timing for main: time 2016-02-05_12:46:00 on domain   2:    1.07650 elapsed seconds
Timing for main: time 2016-02-05_12:46:00 on domain   1:    3.43802 elapsed seconds
Timing for main: time 2016-02-05_12:46:13 on domain   3:     .11226 elapsed seconds
Timing for main: time 2016-02-05_12:46:26 on domain   3:     .10024 elapsed seconds
Timing for main: time 2016-02-05_12:46:40 on domain   3:     .09064 elapsed seconds
Timing for main: time 2016-02-05_12:46:20 on domain   4:     .12535 elapsed seconds
Timing for main: time 2016-02-05_12:46:40 on domain   4:     .11076 elapsed seconds
Timing for main: time 2016-02-05_12:46:40 on domain   2:    1.05430 elapsed seconds
Timing for main: time 2016-02-05_12:46:53 on domain   3:     .10158 elapsed seconds
Timing for main: time 2016-02-05_12:47:06 on domain   3:     .08989 elapsed seconds
Timing for main: time 2016-02-05_12:47:20 on domain   3:     .09297 elapsed seconds
Timing for main: time 2016-02-05_12:47:00 on domain   4:     .12617 elapsed seconds
Timing for main: time 2016-02-05_12:47:20 on domain   4:     .11080 elapsed seconds
Timing for main: time 2016-02-05_12:47:20 on domain   2:    1.04069 elapsed seconds
Timing for main: time 2016-02-05_12:47:33 on domain   3:     .10236 elapsed seconds
Timing for main: time 2016-02-05_12:47:46 on domain   3:     .09076 elapsed seconds
Timing for main: time 2016-02-05_12:48:00 on domain   3:     .09240 elapsed seconds
Timing for main: time 2016-02-05_12:47:40 on domain   4:     .13883 elapsed seconds
Timing for main: time 2016-02-05_12:48:00 on domain   4:     .11446 elapsed seconds
Timing for main: time 2016-02-05_12:48:00 on domain   2:    1.08075 elapsed seconds
Timing for main: time 2016-02-05_12:48:00 on domain   1:    3.45568 elapsed seconds
Timing for main: time 2016-02-05_12:48:13 on domain   3:     .12372 elapsed seconds
Timing for main: time 2016-02-05_12:48:26 on domain   3:     .09912 elapsed seconds
Timing for main: time 2016-02-05_12:48:40 on domain   3:     .09093 elapsed seconds
Timing for main: time 2016-02-05_12:48:20 on domain   4:     .12566 elapsed seconds
Timing for main: time 2016-02-05_12:48:40 on domain   4:     .11488 elapsed seconds
Timing for main: time 2016-02-05_12:48:40 on domain   2:    1.06915 elapsed seconds
Timing for main: time 2016-02-05_12:48:53 on domain   3:     .10421 elapsed seconds
Timing for main: time 2016-02-05_12:49:06 on domain   3:     .08889 elapsed seconds
Timing for main: time 2016-02-05_12:49:20 on domain   3:     .09075 elapsed seconds
Timing for main: time 2016-02-05_12:49:00 on domain   4:     .12639 elapsed seconds
Timing for main: time 2016-02-05_12:49:20 on domain   4:     .11264 elapsed seconds
Timing for main: time 2016-02-05_12:49:20 on domain   2:    1.04197 elapsed seconds
Timing for main: time 2016-02-05_12:49:33 on domain   3:     .10172 elapsed seconds
Timing for main: time 2016-02-05_12:49:46 on domain   3:     .08968 elapsed seconds
Timing for main: time 2016-02-05_12:50:00 on domain   3:     .08992 elapsed seconds
Timing for main: time 2016-02-05_12:49:40 on domain   4:     .12608 elapsed seconds
Timing for main: time 2016-02-05_12:50:00 on domain   4:     .11665 elapsed seconds
Timing for main: time 2016-02-05_12:50:00 on domain   2:    1.08579 elapsed seconds
Timing for main: time 2016-02-05_12:50:00 on domain   1:    3.49482 elapsed seconds
Timing for main: time 2016-02-05_12:50:13 on domain   3:     .10232 elapsed seconds
Timing for main: time 2016-02-05_12:50:26 on domain   3:     .08923 elapsed seconds
Timing for main: time 2016-02-05_12:50:40 on domain   3:     .09064 elapsed seconds
Timing for main: time 2016-02-05_12:50:20 on domain   4:     .12529 elapsed seconds
Timing for main: time 2016-02-05_12:50:40 on domain   4:     .11092 elapsed seconds
Timing for main: time 2016-02-05_12:50:40 on domain   2:    1.04574 elapsed seconds
Timing for main: time 2016-02-05_12:50:53 on domain   3:     .10180 elapsed seconds
Timing for main: time 2016-02-05_12:51:06 on domain   3:     .09729 elapsed seconds
Timing for main: time 2016-02-05_12:51:20 on domain   3:     .08907 elapsed seconds
Timing for main: time 2016-02-05_12:51:00 on domain   4:     .12594 elapsed seconds
Timing for main: time 2016-02-05_12:51:20 on domain   4:     .11195 elapsed seconds
Timing for main: time 2016-02-05_12:51:20 on domain   2:    1.04296 elapsed seconds
Timing for main: time 2016-02-05_12:51:33 on domain   3:     .10269 elapsed seconds
Timing for main: time 2016-02-05_12:51:46 on domain   3:     .09039 elapsed seconds
Timing for main: time 2016-02-05_12:52:00 on domain   3:     .09038 elapsed seconds
Timing for main: time 2016-02-05_12:51:40 on domain   4:     .12572 elapsed seconds
Timing for main: time 2016-02-05_12:52:00 on domain   4:     .11749 elapsed seconds
Timing for main: time 2016-02-05_12:52:00 on domain   2:    1.04671 elapsed seconds
Timing for main: time 2016-02-05_12:52:00 on domain   1:    3.41463 elapsed seconds
Timing for main: time 2016-02-05_12:52:13 on domain   3:     .10256 elapsed seconds
Timing for main: time 2016-02-05_12:52:26 on domain   3:     .09006 elapsed seconds
Timing for main: time 2016-02-05_12:52:40 on domain   3:     .09075 elapsed seconds
Timing for main: time 2016-02-05_12:52:20 on domain   4:     .14373 elapsed seconds
Timing for main: time 2016-02-05_12:52:40 on domain   4:     .13577 elapsed seconds
Timing for main: time 2016-02-05_12:52:40 on domain   2:    1.07817 elapsed seconds
Timing for main: time 2016-02-05_12:52:53 on domain   3:     .10238 elapsed seconds
Timing for main: time 2016-02-05_12:53:06 on domain   3:     .09114 elapsed seconds
Timing for main: time 2016-02-05_12:53:20 on domain   3:     .09095 elapsed seconds
Timing for main: time 2016-02-05_12:53:00 on domain   4:     .13073 elapsed seconds
Timing for main: time 2016-02-05_12:53:20 on domain   4:     .11227 elapsed seconds
Timing for main: time 2016-02-05_12:53:20 on domain   2:    1.06185 elapsed seconds
Timing for main: time 2016-02-05_12:53:33 on domain   3:     .10195 elapsed seconds
Timing for main: time 2016-02-05_12:53:46 on domain   3:     .09181 elapsed seconds
Timing for main: time 2016-02-05_12:54:00 on domain   3:     .09490 elapsed seconds
Timing for main: time 2016-02-05_12:53:40 on domain   4:     .12576 elapsed seconds
Timing for main: time 2016-02-05_12:54:00 on domain   4:     .11245 elapsed seconds
Timing for main: time 2016-02-05_12:54:00 on domain   2:    1.04340 elapsed seconds
Timing for main: time 2016-02-05_12:54:00 on domain   1:    3.46498 elapsed seconds
Timing for main: time 2016-02-05_12:54:13 on domain   3:     .10179 elapsed seconds
Timing for main: time 2016-02-05_12:54:26 on domain   3:     .08901 elapsed seconds
Timing for main: time 2016-02-05_12:54:40 on domain   3:     .09156 elapsed seconds
Timing for main: time 2016-02-05_12:54:20 on domain   4:     .12552 elapsed seconds
Timing for main: time 2016-02-05_12:54:40 on domain   4:     .11591 elapsed seconds
Timing for main: time 2016-02-05_12:54:40 on domain   2:    1.03849 elapsed seconds
Timing for main: time 2016-02-05_12:54:53 on domain   3:     .10250 elapsed seconds
Timing for main: time 2016-02-05_12:55:06 on domain   3:     .09001 elapsed seconds
Timing for main: time 2016-02-05_12:55:20 on domain   3:     .09121 elapsed seconds
Timing for main: time 2016-02-05_12:55:00 on domain   4:     .12973 elapsed seconds
Timing for main: time 2016-02-05_12:55:20 on domain   4:     .11237 elapsed seconds
Timing for main: time 2016-02-05_12:55:20 on domain   2:    1.04668 elapsed seconds
Timing for main: time 2016-02-05_12:55:33 on domain   3:     .10224 elapsed seconds
Timing for main: time 2016-02-05_12:55:46 on domain   3:     .08952 elapsed seconds
Timing for main: time 2016-02-05_12:56:00 on domain   3:     .09049 elapsed seconds
Timing for main: time 2016-02-05_12:55:40 on domain   4:     .12525 elapsed seconds
Timing for main: time 2016-02-05_12:56:00 on domain   4:     .11193 elapsed seconds
Timing for main: time 2016-02-05_12:56:00 on domain   2:    1.03958 elapsed seconds
Timing for main: time 2016-02-05_12:56:00 on domain   1:    3.40543 elapsed seconds
Timing for main: time 2016-02-05_12:56:13 on domain   3:     .10517 elapsed seconds
Timing for main: time 2016-02-05_12:56:26 on domain   3:     .08927 elapsed seconds
Timing for main: time 2016-02-05_12:56:40 on domain   3:     .09087 elapsed seconds
Timing for main: time 2016-02-05_12:56:20 on domain   4:     .12540 elapsed seconds
Timing for main: time 2016-02-05_12:56:40 on domain   4:     .11231 elapsed seconds
Timing for main: time 2016-02-05_12:56:40 on domain   2:    1.09593 elapsed seconds
Timing for main: time 2016-02-05_12:56:53 on domain   3:     .10245 elapsed seconds
Timing for main: time 2016-02-05_12:57:06 on domain   3:     .09080 elapsed seconds
Timing for main: time 2016-02-05_12:57:20 on domain   3:     .09318 elapsed seconds
Timing for main: time 2016-02-05_12:57:00 on domain   4:     .12564 elapsed seconds
Timing for main: time 2016-02-05_12:57:20 on domain   4:     .11131 elapsed seconds
Timing for main: time 2016-02-05_12:57:20 on domain   2:    1.04262 elapsed seconds
Timing for main: time 2016-02-05_12:57:33 on domain   3:     .10214 elapsed seconds
Timing for main: time 2016-02-05_12:57:46 on domain   3:     .09114 elapsed seconds
Timing for main: time 2016-02-05_12:58:00 on domain   3:     .09128 elapsed seconds
Timing for main: time 2016-02-05_12:57:40 on domain   4:     .12684 elapsed seconds
Timing for main: time 2016-02-05_12:58:00 on domain   4:     .10994 elapsed seconds
Timing for main: time 2016-02-05_12:58:00 on domain   2:    1.04398 elapsed seconds
Timing for main: time 2016-02-05_12:58:00 on domain   1:    3.46212 elapsed seconds
  photolysis_driver: called for domain  1
Timing for main: time 2016-02-05_12:58:13 on domain   3:     .10282 elapsed seconds
Timing for main: time 2016-02-05_12:58:26 on domain   3:     .08918 elapsed seconds
Timing for main: time 2016-02-05_12:58:40 on domain   3:     .09060 elapsed seconds
Timing for main: time 2016-02-05_12:58:20 on domain   4:     .12531 elapsed seconds
Timing for main: time 2016-02-05_12:58:40 on domain   4:     .11204 elapsed seconds
Timing for main: time 2016-02-05_12:58:40 on domain   2:    1.03977 elapsed seconds
Timing for main: time 2016-02-05_12:58:53 on domain   3:     .10247 elapsed seconds
Timing for main: time 2016-02-05_12:59:06 on domain   3:     .08946 elapsed seconds
Timing for main: time 2016-02-05_12:59:20 on domain   3:     .09059 elapsed seconds
Timing for main: time 2016-02-05_12:59:00 on domain   4:     .12544 elapsed seconds
Timing for main: time 2016-02-05_12:59:20 on domain   4:     .11198 elapsed seconds
Timing for main: time 2016-02-05_12:59:20 on domain   2:    1.08294 elapsed seconds
  photolysis_driver: called for domain  2
Timing for main: time 2016-02-05_12:59:33 on domain   3:     .10221 elapsed seconds
Timing for main: time 2016-02-05_12:59:46 on domain   3:     .09170 elapsed seconds
  photolysis_driver: called for domain  3
Timing for main: time 2016-02-05_13:00:00 on domain   3:     .45437 elapsed seconds
Timing for main: time 2016-02-05_12:59:40 on domain   4:     .12623 elapsed seconds
  photolysis_driver: called for domain  4
Timing for main: time 2016-02-05_13:00:00 on domain   4:     .53470 elapsed seconds
Timing for main: time 2016-02-05_13:00:00 on domain   2:    2.26920 elapsed seconds
Timing for main: time 2016-02-05_13:00:00 on domain   1:    5.02403 elapsed seconds
Timing for Writing wrfout_d01_2016-02-05_13:00:00 for domain        1:    2.15306 elapsed seconds
  HOURLY EMISSIONS UPDATE TIME     3600.0        .0
 mediation_integrate: med_read_wrf_chem_emissions: Read emissions for time 2016-02-05_13:00:00
 **WARNING** Time in input file not being checked **WARNING**
Timing for Writing wrfout_d02_2016-02-05_13:00:00 for domain        2:    2.72162 elapsed seconds
Timing for Writing wrfout_d03_2016-02-05_13:00:00 for domain        3:    2.51183 elapsed seconds
Timing for main: time 2016-02-05_13:00:13 on domain   3:    3.15573 elapsed seconds
Timing for main: time 2016-02-05_13:00:26 on domain   3:     .08999 elapsed seconds
Timing for main: time 2016-02-05_13:00:40 on domain   3:     .11277 elapsed seconds
Timing for Writing wrfout_d04_2016-02-05_13:00:00 for domain        4:    2.81091 elapsed seconds
Timing for main: time 2016-02-05_13:00:20 on domain   4:    3.54101 elapsed seconds
Timing for main: time 2016-02-05_13:00:40 on domain   4:     .11241 elapsed seconds
Timing for main: time 2016-02-05_13:00:40 on domain   2:   10.96218 elapsed seconds
Timing for main: time 2016-02-05_13:00:53 on domain   3:     .10208 elapsed seconds
Timing for main: time 2016-02-05_13:01:06 on domain   3:     .09996 elapsed seconds
Timing for main: time 2016-02-05_13:01:20 on domain   3:     .09556 elapsed seconds
Timing for main: time 2016-02-05_13:01:00 on domain   4:     .12599 elapsed seconds
Timing for main: time 2016-02-05_13:01:20 on domain   4:     .11472 elapsed seconds
Timing for main: time 2016-02-05_13:01:20 on domain   2:    1.05634 elapsed seconds
Timing for main: time 2016-02-05_13:01:33 on domain   3:     .10200 elapsed seconds
Timing for main: time 2016-02-05_13:01:46 on domain   3:     .09152 elapsed seconds
Timing for main: time 2016-02-05_13:02:00 on domain   3:     .09132 elapsed seconds
Timing for main: time 2016-02-05_13:01:40 on domain   4:     .12618 elapsed seconds
Timing for main: time 2016-02-05_13:02:00 on domain   4:     .11406 elapsed seconds
Timing for main: time 2016-02-05_13:02:00 on domain   2:    1.04156 elapsed seconds
Timing for main: time 2016-02-05_13:02:00 on domain   1:   16.35862 elapsed seconds
Timing for main: time 2016-02-05_13:02:13 on domain   3:     .10258 elapsed seconds
Timing for main: time 2016-02-05_13:02:26 on domain   3:     .09070 elapsed seconds
Timing for main: time 2016-02-05_13:02:40 on domain   3:     .09190 elapsed seconds
Timing for main: time 2016-02-05_13:02:20 on domain   4:     .12528 elapsed seconds
Timing for main: time 2016-02-05_13:02:40 on domain   4:     .11240 elapsed seconds
Timing for main: time 2016-02-05_13:02:40 on domain   2:    1.03885 elapsed seconds
Timing for main: time 2016-02-05_13:02:53 on domain   3:     .10268 elapsed seconds
Timing for main: time 2016-02-05_13:03:06 on domain   3:     .09367 elapsed seconds
Timing for main: time 2016-02-05_13:03:20 on domain   3:     .09176 elapsed seconds
Timing for main: time 2016-02-05_13:03:00 on domain   4:     .12634 elapsed seconds
Timing for main: time 2016-02-05_13:03:20 on domain   4:     .11070 elapsed seconds
Timing for main: time 2016-02-05_13:03:20 on domain   2:    1.04475 elapsed seconds
Timing for main: time 2016-02-05_13:03:33 on domain   3:     .10242 elapsed seconds
Timing for main: time 2016-02-05_13:03:46 on domain   3:     .09032 elapsed seconds
Timing for main: time 2016-02-05_13:04:00 on domain   3:     .09402 elapsed seconds
Timing for main: time 2016-02-05_13:03:40 on domain   4:     .12562 elapsed seconds
Timing for main: time 2016-02-05_13:04:00 on domain   4:     .11062 elapsed seconds
Timing for main: time 2016-02-05_13:04:00 on domain   2:    1.04727 elapsed seconds
Timing for main: time 2016-02-05_13:04:00 on domain   1:    3.40798 elapsed seconds
Timing for main: time 2016-02-05_13:04:13 on domain   3:     .10288 elapsed seconds
Timing for main: time 2016-02-05_13:04:26 on domain   3:     .09011 elapsed seconds
Timing for main: time 2016-02-05_13:04:40 on domain   3:     .09352 elapsed seconds
Timing for main: time 2016-02-05_13:04:20 on domain   4:     .12643 elapsed seconds
Timing for main: time 2016-02-05_13:04:40 on domain   4:     .11272 elapsed seconds
Timing for main: time 2016-02-05_13:04:40 on domain   2:    1.04048 elapsed seconds
Timing for main: time 2016-02-05_13:04:53 on domain   3:     .10253 elapsed seconds
Timing for main: time 2016-02-05_13:05:06 on domain   3:     .08927 elapsed seconds
Timing for main: time 2016-02-05_13:05:20 on domain   3:     .09106 elapsed seconds
Timing for main: time 2016-02-05_13:05:00 on domain   4:     .13011 elapsed seconds
Timing for main: time 2016-02-05_13:05:20 on domain   4:     .11259 elapsed seconds
Timing for main: time 2016-02-05_13:05:20 on domain   2:    1.04646 elapsed seconds
Timing for main: time 2016-02-05_13:05:33 on domain   3:     .10258 elapsed seconds
Timing for main: time 2016-02-05_13:05:46 on domain   3:     .08931 elapsed seconds
Timing for main: time 2016-02-05_13:06:00 on domain   3:     .09126 elapsed seconds
Timing for main: time 2016-02-05_13:05:40 on domain   4:     .12604 elapsed seconds
Timing for main: time 2016-02-05_13:06:00 on domain   4:     .11192 elapsed seconds
Timing for main: time 2016-02-05_13:06:00 on domain   2:    1.04135 elapsed seconds
Timing for main: time 2016-02-05_13:06:00 on domain   1:    3.41074 elapsed seconds
Timing for main: time 2016-02-05_13:06:13 on domain   3:     .10258 elapsed seconds
Timing for main: time 2016-02-05_13:06:26 on domain   3:     .09272 elapsed seconds
Timing for main: time 2016-02-05_13:06:40 on domain   3:     .09160 elapsed seconds
Timing for main: time 2016-02-05_13:06:20 on domain   4:     .12561 elapsed seconds
Timing for main: time 2016-02-05_13:06:40 on domain   4:     .11274 elapsed seconds
Timing for main: time 2016-02-05_13:06:40 on domain   2:    1.05239 elapsed seconds
Timing for main: time 2016-02-05_13:06:53 on domain   3:     .10278 elapsed seconds
Timing for main: time 2016-02-05_13:07:06 on domain   3:     .08878 elapsed seconds
Timing for main: time 2016-02-05_13:07:20 on domain   3:     .09347 elapsed seconds
Timing for main: time 2016-02-05_13:07:00 on domain   4:     .12563 elapsed seconds
Timing for main: time 2016-02-05_13:07:20 on domain   4:     .11219 elapsed seconds
Timing for main: time 2016-02-05_13:07:20 on domain   2:    1.05400 elapsed seconds
Timing for main: time 2016-02-05_13:07:33 on domain   3:     .10268 elapsed seconds
Timing for main: time 2016-02-05_13:07:46 on domain   3:     .08917 elapsed seconds
Timing for main: time 2016-02-05_13:08:00 on domain   3:     .09107 elapsed seconds
Timing for main: time 2016-02-05_13:07:40 on domain   4:     .13406 elapsed seconds
Timing for main: time 2016-02-05_13:08:00 on domain   4:     .15334 elapsed seconds
Timing for main: time 2016-02-05_13:08:00 on domain   2:    1.08587 elapsed seconds
Timing for main: time 2016-02-05_13:08:00 on domain   1:    3.51949 elapsed seconds
Timing for main: time 2016-02-05_13:08:13 on domain   3:     .10712 elapsed seconds
Timing for main: time 2016-02-05_13:08:26 on domain   3:     .09100 elapsed seconds
Timing for main: time 2016-02-05_13:08:40 on domain   3:     .09116 elapsed seconds
Timing for main: time 2016-02-05_13:08:20 on domain   4:     .12598 elapsed seconds
Timing for main: time 2016-02-05_13:08:40 on domain   4:     .11071 elapsed seconds
Timing for main: time 2016-02-05_13:08:40 on domain   2:    1.06401 elapsed seconds
Timing for main: time 2016-02-05_13:08:53 on domain   3:     .10220 elapsed seconds
Timing for main: time 2016-02-05_13:09:06 on domain   3:     .09090 elapsed seconds
Timing for main: time 2016-02-05_13:09:20 on domain   3:     .09082 elapsed seconds
Timing for main: time 2016-02-05_13:09:00 on domain   4:     .12563 elapsed seconds
Timing for main: time 2016-02-05_13:09:20 on domain   4:     .11346 elapsed seconds
Timing for main: time 2016-02-05_13:09:20 on domain   2:    1.08286 elapsed seconds
Timing for main: time 2016-02-05_13:09:33 on domain   3:     .10179 elapsed seconds
Timing for main: time 2016-02-05_13:09:46 on domain   3:     .09571 elapsed seconds
Timing for main: time 2016-02-05_13:10:00 on domain   3:     .09525 elapsed seconds
Timing for main: time 2016-02-05_13:09:40 on domain   4:     .12563 elapsed seconds
Timing for main: time 2016-02-05_13:10:00 on domain   4:     .11577 elapsed seconds
Timing for main: time 2016-02-05_13:10:00 on domain   2:    1.06830 elapsed seconds
Timing for main: time 2016-02-05_13:10:00 on domain   1:    3.49173 elapsed seconds
Timing for main: time 2016-02-05_13:10:13 on domain   3:     .10197 elapsed seconds
Timing for main: time 2016-02-05_13:10:26 on domain   3:     .08959 elapsed seconds
Timing for main: time 2016-02-05_13:10:40 on domain   3:     .09128 elapsed seconds
Timing for main: time 2016-02-05_13:10:20 on domain   4:     .12636 elapsed seconds
Timing for main: time 2016-02-05_13:10:40 on domain   4:     .11222 elapsed seconds
Timing for main: time 2016-02-05_13:10:40 on domain   2:    1.03791 elapsed seconds
Timing for main: time 2016-02-05_13:10:53 on domain   3:     .10396 elapsed seconds
Timing for main: time 2016-02-05_13:11:06 on domain   3:     .08808 elapsed seconds
Timing for main: time 2016-02-05_13:11:20 on domain   3:     .09054 elapsed seconds
Timing for main: time 2016-02-05_13:11:00 on domain   4:     .12523 elapsed seconds
Timing for main: time 2016-02-05_13:11:20 on domain   4:     .11239 elapsed seconds
Timing for main: time 2016-02-05_13:11:20 on domain   2:    1.04260 elapsed seconds
Timing for main: time 2016-02-05_13:11:33 on domain   3:     .10637 elapsed seconds
Timing for main: time 2016-02-05_13:11:46 on domain   3:     .08876 elapsed seconds
Timing for main: time 2016-02-05_13:12:00 on domain   3:     .09671 elapsed seconds
Timing for main: time 2016-02-05_13:11:40 on domain   4:     .12577 elapsed seconds
Timing for main: time 2016-02-05_13:12:00 on domain   4:     .11265 elapsed seconds
Timing for main: time 2016-02-05_13:12:00 on domain   2:    1.10168 elapsed seconds
Timing for main: time 2016-02-05_13:12:00 on domain   1:    3.46775 elapsed seconds
Timing for main: time 2016-02-05_13:12:13 on domain   3:     .11554 elapsed seconds
Timing for main: time 2016-02-05_13:12:26 on domain   3:     .12804 elapsed seconds
Timing for main: time 2016-02-05_13:12:40 on domain   3:     .09218 elapsed seconds
Timing for main: time 2016-02-05_13:12:20 on domain   4:     .12535 elapsed seconds
Timing for main: time 2016-02-05_13:12:40 on domain   4:     .11095 elapsed seconds
Timing for main: time 2016-02-05_13:12:40 on domain   2:    1.09343 elapsed seconds
Timing for main: time 2016-02-05_13:12:53 on domain   3:     .10210 elapsed seconds
Timing for main: time 2016-02-05_13:13:06 on domain   3:     .09162 elapsed seconds
Timing for main: time 2016-02-05_13:13:20 on domain   3:     .09051 elapsed seconds
Timing for main: time 2016-02-05_13:13:00 on domain   4:     .12599 elapsed seconds
Timing for main: time 2016-02-05_13:13:20 on domain   4:     .11244 elapsed seconds
Timing for main: time 2016-02-05_13:13:20 on domain   2:    1.04246 elapsed seconds
Timing for main: time 2016-02-05_13:13:33 on domain   3:     .10228 elapsed seconds
Timing for main: time 2016-02-05_13:13:46 on domain   3:     .09046 elapsed seconds
Timing for main: time 2016-02-05_13:14:00 on domain   3:     .10296 elapsed seconds
Timing for main: time 2016-02-05_13:13:40 on domain   4:     .12554 elapsed seconds
Timing for main: time 2016-02-05_13:14:00 on domain   4:     .11060 elapsed seconds
Timing for main: time 2016-02-05_13:14:00 on domain   2:    1.05235 elapsed seconds
Timing for main: time 2016-02-05_13:14:00 on domain   1:    3.46713 elapsed seconds
Timing for main: time 2016-02-05_13:14:13 on domain   3:     .10287 elapsed seconds
Timing for main: time 2016-02-05_13:14:26 on domain   3:     .09425 elapsed seconds
Timing for main: time 2016-02-05_13:14:40 on domain   3:     .11879 elapsed seconds
Timing for main: time 2016-02-05_13:14:20 on domain   4:     .12650 elapsed seconds
Timing for main: time 2016-02-05_13:14:40 on domain   4:     .11210 elapsed seconds
Timing for main: time 2016-02-05_13:14:40 on domain   2:    1.09108 elapsed seconds
Timing for main: time 2016-02-05_13:14:53 on domain   3:     .10245 elapsed seconds
Timing for main: time 2016-02-05_13:15:06 on domain   3:     .09058 elapsed seconds
Timing for main: time 2016-02-05_13:15:20 on domain   3:     .09033 elapsed seconds
Timing for main: time 2016-02-05_13:15:00 on domain   4:     .12971 elapsed seconds
Timing for main: time 2016-02-05_13:15:20 on domain   4:     .11461 elapsed seconds
Timing for main: time 2016-02-05_13:15:20 on domain   2:    1.07164 elapsed seconds
Timing for main: time 2016-02-05_13:15:33 on domain   3:     .10291 elapsed seconds
Timing for main: time 2016-02-05_13:15:46 on domain   3:     .09205 elapsed seconds
Timing for main: time 2016-02-05_13:16:00 on domain   3:     .08950 elapsed seconds
Timing for main: time 2016-02-05_13:15:40 on domain   4:     .12539 elapsed seconds
Timing for main: time 2016-02-05_13:16:00 on domain   4:     .11254 elapsed seconds
Timing for main: time 2016-02-05_13:16:00 on domain   2:    1.04694 elapsed seconds
Timing for main: time 2016-02-05_13:16:00 on domain   1:    3.48908 elapsed seconds
Timing for main: time 2016-02-05_13:16:13 on domain   3:     .10282 elapsed seconds
Timing for main: time 2016-02-05_13:16:26 on domain   3:     .08917 elapsed seconds
Timing for main: time 2016-02-05_13:16:40 on domain   3:     .09340 elapsed seconds
Timing for main: time 2016-02-05_13:16:20 on domain   4:     .12568 elapsed seconds
Timing for main: time 2016-02-05_13:16:40 on domain   4:     .11355 elapsed seconds
Timing for main: time 2016-02-05_13:16:40 on domain   2:    1.04090 elapsed seconds
Timing for main: time 2016-02-05_13:16:53 on domain   3:     .10267 elapsed seconds
Timing for main: time 2016-02-05_13:17:06 on domain   3:     .08831 elapsed seconds
Timing for main: time 2016-02-05_13:17:20 on domain   3:     .09252 elapsed seconds
Timing for main: time 2016-02-05_13:17:00 on domain   4:     .12592 elapsed seconds
Timing for main: time 2016-02-05_13:17:20 on domain   4:     .11336 elapsed seconds
Timing for main: time 2016-02-05_13:17:20 on domain   2:    1.04130 elapsed seconds
[...]
Timing for main: time 2016-02-05_17:36:00 on domain   2:    1.04560 elapsed seconds
Timing for main: time 2016-02-05_17:36:00 on domain   1:    3.48248 elapsed seconds
Timing for main: time 2016-02-05_17:36:13 on domain   3:     .10278 elapsed seconds
Timing for main: time 2016-02-05_17:36:26 on domain   3:     .08908 elapsed seconds
Timing for main: time 2016-02-05_17:36:40 on domain   3:     .09072 elapsed seconds
Timing for main: time 2016-02-05_17:36:20 on domain   4:     .12652 elapsed seconds
Timing for main: time 2016-02-05_17:36:40 on domain   4:     .11218 elapsed seconds
Timing for main: time 2016-02-05_17:36:40 on domain   2:    1.03720 elapsed seconds
Timing for main: time 2016-02-05_17:36:53 on domain   3:     .10243 elapsed seconds
Timing for main: time 2016-02-05_17:37:06 on domain   3:     .08994 elapsed seconds
Timing for main: time 2016-02-05_17:37:20 on domain   3:     .09437 elapsed seconds
Timing for main: time 2016-02-05_17:37:00 on domain   4:     .12724 elapsed seconds
Timing for main: time 2016-02-05_17:37:20 on domain   4:     .11157 elapsed seconds
Timing for main: time 2016-02-05_17:37:20 on domain   2:    1.04550 elapsed seconds
Timing for main: time 2016-02-05_17:37:33 on domain   3:     .10272 elapsed seconds
Timing for main: time 2016-02-05_17:37:46 on domain   3:     .08979 elapsed seconds
Timing for main: time 2016-02-05_17:38:00 on domain   3:     .09125 elapsed seconds
Timing for main: time 2016-02-05_17:37:40 on domain   4:     .12620 elapsed seconds
Timing for main: time 2016-02-05_17:38:00 on domain   4:     .11271 elapsed seconds
Timing for main: time 2016-02-05_17:38:00 on domain   2:    1.04245 elapsed seconds
Timing for main: time 2016-02-05_17:38:00 on domain   1:    3.40147 elapsed seconds
Timing for main: time 2016-02-05_17:38:13 on domain   3:     .10260 elapsed seconds
Timing for main: time 2016-02-05_17:38:26 on domain   3:     .10220 elapsed seconds
Timing for main: time 2016-02-05_17:38:40 on domain   3:     .09423 elapsed seconds
Timing for main: time 2016-02-05_17:38:20 on domain   4:     .14377 elapsed seconds
Timing for main: time 2016-02-05_17:38:40 on domain   4:     .13609 elapsed seconds
Timing for main: time 2016-02-05_17:38:40 on domain   2:    1.09688 elapsed seconds
Timing for main: time 2016-02-05_17:38:53 on domain   3:     .10233 elapsed seconds
Timing for main: time 2016-02-05_17:39:06 on domain   3:     .09161 elapsed seconds
Timing for main: time 2016-02-05_17:39:20 on domain   3:     .09158 elapsed seconds
Timing for main: time 2016-02-05_17:39:00 on domain   4:     .12746 elapsed seconds
Timing for main: time 2016-02-05_17:39:20 on domain   4:     .10946 elapsed seconds
Timing for main: time 2016-02-05_17:39:20 on domain   2:    1.05946 elapsed seconds
Timing for main: time 2016-02-05_17:39:33 on domain   3:     .10224 elapsed seconds
Timing for main: time 2016-02-05_17:39:46 on domain   3:     .09379 elapsed seconds
Timing for main: time 2016-02-05_17:40:00 on domain   3:     .09254 elapsed seconds
Timing for main: time 2016-02-05_17:39:40 on domain   4:     .12615 elapsed seconds
Timing for main: time 2016-02-05_17:40:00 on domain   4:     .11532 elapsed seconds
Timing for main: time 2016-02-05_17:40:00 on domain   2:    1.05034 elapsed seconds
Timing for main: time 2016-02-05_17:40:00 on domain   1:    3.48322 elapsed seconds
Timing for main: time 2016-02-05_17:40:13 on domain   3:     .10373 elapsed seconds
Timing for main: time 2016-02-05_17:40:26 on domain   3:     .09111 elapsed seconds
Timing for main: time 2016-02-05_17:40:40 on domain   3:     .09149 elapsed seconds
Timing for main: time 2016-02-05_17:40:20 on domain   4:     .12624 elapsed seconds
Timing for main: time 2016-02-05_17:40:40 on domain   4:     .11220 elapsed seconds
Timing for main: time 2016-02-05_17:40:40 on domain   2:    1.04047 elapsed seconds
Timing for main: time 2016-02-05_17:40:53 on domain   3:     .10226 elapsed seconds
Timing for main: time 2016-02-05_17:41:06 on domain   3:     .09042 elapsed seconds
Timing for main: time 2016-02-05_17:41:20 on domain   3:     .08998 elapsed seconds
Timing for main: time 2016-02-05_17:41:00 on domain   4:     .12639 elapsed seconds
Timing for main: time 2016-02-05_17:41:20 on domain   4:     .11388 elapsed seconds
Timing for main: time 2016-02-05_17:41:20 on domain   2:    1.04630 elapsed seconds
Timing for main: time 2016-02-05_17:41:33 on domain   3:     .10382 elapsed seconds
Timing for main: time 2016-02-05_17:41:46 on domain   3:     .09089 elapsed seconds
Timing for main: time 2016-02-05_17:42:00 on domain   3:     .08934 elapsed seconds
Timing for main: time 2016-02-05_17:41:40 on domain   4:     .14078 elapsed seconds
Timing for main: time 2016-02-05_17:42:00 on domain   4:     .11317 elapsed seconds
Timing for main: time 2016-02-05_17:42:00 on domain   2:    1.08250 elapsed seconds
Timing for main: time 2016-02-05_17:42:00 on domain   1:    3.44839 elapsed seconds
Timing for main: time 2016-02-05_17:42:13 on domain   3:     .10254 elapsed seconds
Timing for main: time 2016-02-05_17:42:26 on domain   3:     .09321 elapsed seconds
Timing for main: time 2016-02-05_17:42:40 on domain   3:     .09099 elapsed seconds
Timing for main: time 2016-02-05_17:42:20 on domain   4:     .12663 elapsed seconds
Timing for main: time 2016-02-05_17:42:40 on domain   4:     .11234 elapsed seconds
Timing for main: time 2016-02-05_17:42:40 on domain   2:    1.04216 elapsed seconds
Timing for main: time 2016-02-05_17:42:53 on domain   3:     .10287 elapsed seconds
Timing for main: time 2016-02-05_17:43:06 on domain   3:     .08901 elapsed seconds
Timing for main: time 2016-02-05_17:43:20 on domain   3:     .09149 elapsed seconds
Timing for main: time 2016-02-05_17:43:00 on domain   4:     .12618 elapsed seconds
Timing for main: time 2016-02-05_17:43:20 on domain   4:     .11225 elapsed seconds
Timing for main: time 2016-02-05_17:43:20 on domain   2:    1.04018 elapsed seconds
Timing for main: time 2016-02-05_17:43:33 on domain   3:     .10267 elapsed seconds
Timing for main: time 2016-02-05_17:43:46 on domain   3:     .08893 elapsed seconds
Timing for main: time 2016-02-05_17:44:00 on domain   3:     .09195 elapsed seconds
Timing for main: time 2016-02-05_17:43:40 on domain   4:     .12605 elapsed seconds
Timing for main: time 2016-02-05_17:44:00 on domain   4:     .11187 elapsed seconds
Timing for main: time 2016-02-05_17:44:00 on domain   2:    1.04085 elapsed seconds
Timing for main: time 2016-02-05_17:44:00 on domain   1:    3.39974 elapsed seconds
Timing for main: time 2016-02-05_17:44:13 on domain   3:     .10268 elapsed seconds
Timing for main: time 2016-02-05_17:44:26 on domain   3:     .08977 elapsed seconds
Timing for main: time 2016-02-05_17:44:40 on domain   3:     .09081 elapsed seconds
Timing for main: time 2016-02-05_17:44:20 on domain   4:     .12917 elapsed seconds
Timing for main: time 2016-02-05_17:44:40 on domain   4:     .11116 elapsed seconds
Timing for main: time 2016-02-05_17:44:40 on domain   2:    1.04213 elapsed seconds
Timing for main: time 2016-02-05_17:44:53 on domain   3:     .10220 elapsed seconds
Timing for main: time 2016-02-05_17:45:06 on domain   3:     .09084 elapsed seconds
Timing for main: time 2016-02-05_17:45:20 on domain   3:     .09108 elapsed seconds
Timing for main: time 2016-02-05_17:45:00 on domain   4:     .13078 elapsed seconds
Timing for main: time 2016-02-05_17:45:20 on domain   4:     .11035 elapsed seconds
Timing for main: time 2016-02-05_17:45:20 on domain   2:    1.04563 elapsed seconds
Timing for main: time 2016-02-05_17:45:33 on domain   3:     .10252 elapsed seconds
Timing for main: time 2016-02-05_17:45:46 on domain   3:     .09121 elapsed seconds
Timing for main: time 2016-02-05_17:46:00 on domain   3:     .09122 elapsed seconds
Timing for main: time 2016-02-05_17:45:40 on domain   4:     .12689 elapsed seconds
Timing for main: time 2016-02-05_17:46:00 on domain   4:     .11067 elapsed seconds
Timing for main: time 2016-02-05_17:46:00 on domain   2:    1.04183 elapsed seconds
Timing for main: time 2016-02-05_17:46:00 on domain   1:    3.40660 elapsed seconds
Timing for main: time 2016-02-05_17:46:13 on domain   3:     .10493 elapsed seconds
Timing for main: time 2016-02-05_17:46:26 on domain   3:     .09164 elapsed seconds
Timing for main: time 2016-02-05_17:46:40 on domain   3:     .09107 elapsed seconds
Timing for main: time 2016-02-05_17:46:20 on domain   4:     .12632 elapsed seconds
Timing for main: time 2016-02-05_17:46:40 on domain   4:     .11246 elapsed seconds
Timing for main: time 2016-02-05_17:46:40 on domain   2:    1.04571 elapsed seconds
Timing for main: time 2016-02-05_17:46:53 on domain   3:     .10265 elapsed seconds
Timing for main: time 2016-02-05_17:47:06 on domain   3:     .09116 elapsed seconds
Timing for main: time 2016-02-05_17:47:20 on domain   3:     .09218 elapsed seconds
Timing for main: time 2016-02-05_17:47:00 on domain   4:     .12650 elapsed seconds
Timing for main: time 2016-02-05_17:47:20 on domain   4:     .11199 elapsed seconds
Timing for main: time 2016-02-05_17:47:20 on domain   2:    1.04291 elapsed seconds
Timing for main: time 2016-02-05_17:47:33 on domain   3:     .10677 elapsed seconds
Timing for main: time 2016-02-05_17:47:46 on domain   3:     .09199 elapsed seconds
Timing for main: time 2016-02-05_17:48:00 on domain   3:     .08920 elapsed seconds
Timing for main: time 2016-02-05_17:47:40 on domain   4:     .12639 elapsed seconds
Timing for main: time 2016-02-05_17:48:00 on domain   4:     .11252 elapsed seconds
Timing for main: time 2016-02-05_17:48:00 on domain   2:    1.04624 elapsed seconds
Timing for main: time 2016-02-05_17:48:00 on domain   1:    3.41468 elapsed seconds
Timing for main: time 2016-02-05_17:48:13 on domain   3:     .10260 elapsed seconds
Timing for main: time 2016-02-05_17:48:26 on domain   3:     .08898 elapsed seconds
Timing for main: time 2016-02-05_17:48:40 on domain   3:     .09083 elapsed seconds
Timing for main: time 2016-02-05_17:48:20 on domain   4:     .12866 elapsed seconds
Timing for main: time 2016-02-05_17:48:40 on domain   4:     .12939 elapsed seconds
Timing for main: time 2016-02-05_17:48:40 on domain   2:    1.06096 elapsed seconds
Timing for main: time 2016-02-05_17:48:53 on domain   3:     .10268 elapsed seconds
Timing for main: time 2016-02-05_17:49:06 on domain   3:     .08970 elapsed seconds
Timing for main: time 2016-02-05_17:49:20 on domain   3:     .09082 elapsed seconds
Timing for main: time 2016-02-05_17:49:00 on domain   4:     .12979 elapsed seconds
Timing for main: time 2016-02-05_17:49:20 on domain   4:     .11242 elapsed seconds
Timing for main: time 2016-02-05_17:49:20 on domain   2:    1.04408 elapsed seconds
Timing for main: time 2016-02-05_17:49:33 on domain   3:     .10257 elapsed seconds
Timing for main: time 2016-02-05_17:49:46 on domain   3:     .08971 elapsed seconds
Timing for main: time 2016-02-05_17:50:00 on domain   3:     .10494 elapsed seconds
Timing for main: time 2016-02-05_17:49:40 on domain   4:     .12662 elapsed seconds
Timing for main: time 2016-02-05_17:50:00 on domain   4:     .11625 elapsed seconds
Timing for main: time 2016-02-05_17:50:00 on domain   2:    1.05943 elapsed seconds
Timing for main: time 2016-02-05_17:50:00 on domain   1:    3.46857 elapsed seconds
Timing for main: time 2016-02-05_17:50:13 on domain   3:     .10278 elapsed seconds
Timing for main: time 2016-02-05_17:50:26 on domain   3:     .09035 elapsed seconds
Timing for main: time 2016-02-05_17:50:40 on domain   3:     .09210 elapsed seconds
Timing for main: time 2016-02-05_17:50:20 on domain   4:     .12628 elapsed seconds
Timing for main: time 2016-02-05_17:50:40 on domain   4:     .11098 elapsed seconds
Timing for main: time 2016-02-05_17:50:40 on domain   2:    1.03912 elapsed seconds
Timing for main: time 2016-02-05_17:50:53 on domain   3:     .10401 elapsed seconds
Timing for main: time 2016-02-05_17:51:06 on domain   3:     .09072 elapsed seconds
Timing for main: time 2016-02-05_17:51:20 on domain   3:     .09084 elapsed seconds
Timing for main: time 2016-02-05_17:51:00 on domain   4:     .12612 elapsed seconds
Timing for main: time 2016-02-05_17:51:20 on domain   4:     .11060 elapsed seconds
Timing for main: time 2016-02-05_17:51:20 on domain   2:    1.04113 elapsed seconds
Timing for main: time 2016-02-05_17:51:33 on domain   3:     .11493 elapsed seconds
Timing for main: time 2016-02-05_17:51:46 on domain   3:     .09631 elapsed seconds
Timing for main: time 2016-02-05_17:52:00 on domain   3:     .09081 elapsed seconds
Timing for main: time 2016-02-05_17:51:40 on domain   4:     .12454 elapsed seconds
Timing for main: time 2016-02-05_17:52:00 on domain   4:     .11006 elapsed seconds
Timing for main: time 2016-02-05_17:52:00 on domain   2:    1.07862 elapsed seconds
Timing for main: time 2016-02-05_17:52:00 on domain   1:    3.43563 elapsed seconds
Timing for main: time 2016-02-05_17:52:13 on domain   3:     .10248 elapsed seconds
Timing for main: time 2016-02-05_17:52:26 on domain   3:     .09251 elapsed seconds
Timing for main: time 2016-02-05_17:52:40 on domain   3:     .09258 elapsed seconds
Timing for main: time 2016-02-05_17:52:20 on domain   4:     .12637 elapsed seconds
Timing for main: time 2016-02-05_17:52:40 on domain   4:     .11219 elapsed seconds
Timing for main: time 2016-02-05_17:52:40 on domain   2:    1.04103 elapsed seconds
Timing for main: time 2016-02-05_17:52:53 on domain   3:     .10263 elapsed seconds
Timing for main: time 2016-02-05_17:53:06 on domain   3:     .09178 elapsed seconds
Timing for main: time 2016-02-05_17:53:20 on domain   3:     .08935 elapsed seconds
Timing for main: time 2016-02-05_17:53:00 on domain   4:     .12624 elapsed seconds
Timing for main: time 2016-02-05_17:53:20 on domain   4:     .11197 elapsed seconds
Timing for main: time 2016-02-05_17:53:20 on domain   2:    1.04085 elapsed seconds
Timing for main: time 2016-02-05_17:53:33 on domain   3:     .10267 elapsed seconds
Timing for main: time 2016-02-05_17:53:46 on domain   3:     .08892 elapsed seconds
Timing for main: time 2016-02-05_17:54:00 on domain   3:     .08991 elapsed seconds
Timing for main: time 2016-02-05_17:53:40 on domain   4:     .12673 elapsed seconds
Timing for main: time 2016-02-05_17:54:00 on domain   4:     .11267 elapsed seconds
Timing for main: time 2016-02-05_17:54:00 on domain   2:    1.05974 elapsed seconds
Timing for main: time 2016-02-05_17:54:00 on domain   1:    3.42080 elapsed seconds
Timing for main: time 2016-02-05_17:54:13 on domain   3:     .10286 elapsed seconds
Timing for main: time 2016-02-05_17:54:26 on domain   3:     .08973 elapsed seconds
Timing for main: time 2016-02-05_17:54:40 on domain   3:     .09072 elapsed seconds
Timing for main: time 2016-02-05_17:54:20 on domain   4:     .12585 elapsed seconds
Timing for main: time 2016-02-05_17:54:40 on domain   4:     .11236 elapsed seconds
Timing for main: time 2016-02-05_17:54:40 on domain   2:    1.03781 elapsed seconds
Timing for main: time 2016-02-05_17:54:53 on domain   3:     .10275 elapsed seconds
Timing for main: time 2016-02-05_17:55:06 on domain   3:     .08912 elapsed seconds
Timing for main: time 2016-02-05_17:55:20 on domain   3:     .09145 elapsed seconds
Timing for main: time 2016-02-05_17:55:00 on domain   4:     .13049 elapsed seconds
Timing for main: time 2016-02-05_17:55:20 on domain   4:     .11457 elapsed seconds
Timing for main: time 2016-02-05_17:55:20 on domain   2:    1.05606 elapsed seconds
Timing for main: time 2016-02-05_17:55:33 on domain   3:     .10306 elapsed seconds
Timing for main: time 2016-02-05_17:55:46 on domain   3:     .08890 elapsed seconds
Timing for main: time 2016-02-05_17:56:00 on domain   3:     .09215 elapsed seconds
Timing for main: time 2016-02-05_17:55:40 on domain   4:     .12716 elapsed seconds
Timing for main: time 2016-02-05_17:56:00 on domain   4:     .12604 elapsed seconds
Timing for main: time 2016-02-05_17:56:00 on domain   2:    1.05590 elapsed seconds
Timing for main: time 2016-02-05_17:56:00 on domain   1:    3.42651 elapsed seconds
Timing for main: time 2016-02-05_17:56:13 on domain   3:     .10392 elapsed seconds
Timing for main: time 2016-02-05_17:56:26 on domain   3:     .09046 elapsed seconds
Timing for main: time 2016-02-05_17:56:40 on domain   3:     .09118 elapsed seconds
Timing for main: time 2016-02-05_17:56:20 on domain   4:     .12606 elapsed seconds
Timing for main: time 2016-02-05_17:56:40 on domain   4:     .11036 elapsed seconds
Timing for main: time 2016-02-05_17:56:40 on domain   2:    1.03940 elapsed seconds
Timing for main: time 2016-02-05_17:56:53 on domain   3:     .10294 elapsed seconds
Timing for main: time 2016-02-05_17:57:06 on domain   3:     .09069 elapsed seconds
Timing for main: time 2016-02-05_17:57:20 on domain   3:     .09489 elapsed seconds
Timing for main: time 2016-02-05_17:57:00 on domain   4:     .12589 elapsed seconds
Timing for main: time 2016-02-05_17:57:20 on domain   4:     .11050 elapsed seconds
Timing for main: time 2016-02-05_17:57:20 on domain   2:    1.04624 elapsed seconds
Timing for main: time 2016-02-05_17:57:33 on domain   3:     .10278 elapsed seconds
Timing for main: time 2016-02-05_17:57:46 on domain   3:     .09459 elapsed seconds
Timing for main: time 2016-02-05_17:58:00 on domain   3:     .09115 elapsed seconds
Timing for main: time 2016-02-05_17:57:40 on domain   4:     .12974 elapsed seconds
Timing for main: time 2016-02-05_17:58:00 on domain   4:     .10763 elapsed seconds
Timing for main: time 2016-02-05_17:58:00 on domain   2:    1.04456 elapsed seconds
Timing for main: time 2016-02-05_17:58:00 on domain   1:    3.40722 elapsed seconds
  photolysis_driver: called for domain  1
Timing for main: time 2016-02-05_17:58:13 on domain   3:     .10524 elapsed seconds
Timing for main: time 2016-02-05_17:58:26 on domain   3:     .08921 elapsed seconds
Timing for main: time 2016-02-05_17:58:40 on domain   3:     .09110 elapsed seconds
Timing for main: time 2016-02-05_17:58:20 on domain   4:     .12591 elapsed seconds
Timing for main: time 2016-02-05_17:58:40 on domain   4:     .11249 elapsed seconds
Timing for main: time 2016-02-05_17:58:40 on domain   2:    1.03879 elapsed seconds
Timing for main: time 2016-02-05_17:58:53 on domain   3:     .10349 elapsed seconds
Timing for main: time 2016-02-05_17:59:06 on domain   3:     .09115 elapsed seconds
Timing for main: time 2016-02-05_17:59:20 on domain   3:     .09083 elapsed seconds
Timing for main: time 2016-02-05_17:59:00 on domain   4:     .12615 elapsed seconds
Timing for main: time 2016-02-05_17:59:20 on domain   4:     .11249 elapsed seconds
Timing for main: time 2016-02-05_17:59:20 on domain   2:    1.04232 elapsed seconds
  photolysis_driver: called for domain  2
Timing for main: time 2016-02-05_17:59:33 on domain   3:     .11000 elapsed seconds
Timing for main: time 2016-02-05_17:59:46 on domain   3:     .13190 elapsed seconds
  photolysis_driver: called for domain  3
Timing for main: time 2016-02-05_18:00:00 on domain   3:     .49617 elapsed seconds
Timing for Writing wrfout_d03_2016-02-05_18:00:00 for domain        3:    2.50423 elapsed seconds
Timing for main: time 2016-02-05_17:59:40 on domain   4:     .13287 elapsed seconds
  photolysis_driver: called for domain  4
Timing for main: time 2016-02-05_18:00:00 on domain   4:     .51826 elapsed seconds
Timing for Writing wrfout_d04_2016-02-05_18:00:00 for domain        4:    2.75648 elapsed seconds
Timing for main: time 2016-02-05_18:00:00 on domain   2:    8.87733 elapsed seconds
Timing for Writing wrfout_d02_2016-02-05_18:00:00 for domain        2:    2.75930 elapsed seconds
Timing for main: time 2016-02-05_18:00:00 on domain   1:   14.87369 elapsed seconds
Timing for Writing wrfout_d01_2016-02-05_18:00:00 for domain        1:    2.18116 elapsed seconds
 d01 2016-02-05_18:00:00 wrf: SUCCESS COMPLETE WRF
