taskid: 0 hostname: p10a51.pbm.ihost.com
  Ntasks in X  10 , ntasks in Y  20
 Setting blank km_opt entries to domain #1 values.
  --> The km_opt entry in the namelist.input is now max_domains.
 Setting blank diff_opt entries to domain #1 values.
  --> The diff_opt entry in the namelist.input is now max_domains.
 --- WARNING: traj_opt is zero, but num_traj is not zero; setting num_traj to zero.
 --- NOTE: hypsometric_opt is 2, setting adjust_heights = F
 --- NOTE: sst_update is 0, setting io_form_auxinput4 = 0 and auxinput4_interval = 0 for all domains
 --- NOTE: sst_update is 0, setting io_form_auxinput4 = 0 and auxinput4_interval = 0 for all domains
 --- NOTE: sst_update is 0, setting io_form_auxinput4 = 0 and auxinput4_interval = 0 for all domains
 --- NOTE: sst_update is 0, setting io_form_auxinput4 = 0 and auxinput4_interval = 0 for all domains
 --- NOTE: grid_fdda is 0 for domain      1, setting gfdda interval and ending time to 0 for that domain.
 --- NOTE: both grid_sfdda and pxlsm_soil_nudge are 0 for domain      1, setting sgfdda interval and ending time to 0 for that domain.
 --- NOTE: obs_nudge_opt is 0 for domain      1, setting obs nudging interval and ending time to 0 for that domain.
 --- NOTE: grid_fdda is 0 for domain      2, setting gfdda interval and ending time to 0 for that domain.
 --- NOTE: both grid_sfdda and pxlsm_soil_nudge are 0 for domain      2, setting sgfdda interval and ending time to 0 for that domain.
 --- NOTE: obs_nudge_opt is 0 for domain      2, setting obs nudging interval and ending time to 0 for that domain.
 --- NOTE: grid_fdda is 0 for domain      3, setting gfdda interval and ending time to 0 for that domain.
 --- NOTE: both grid_sfdda and pxlsm_soil_nudge are 0 for domain      3, setting sgfdda interval and ending time to 0 for that domain.
 --- NOTE: obs_nudge_opt is 0 for domain      3, setting obs nudging interval and ending time to 0 for that domain.
 --- NOTE: grid_fdda is 0 for domain      4, setting gfdda interval and ending time to 0 for that domain.
 --- NOTE: both grid_sfdda and pxlsm_soil_nudge are 0 for domain      4, setting sgfdda interval and ending time to 0 for that domain.
 --- NOTE: obs_nudge_opt is 0 for domain      4, setting obs nudging interval and ending time to 0 for that domain.
 bl_pbl_physics /= 4, implies mfshconv must be 0, resetting
 --- NOTE: num_soil_layers has been set to      4
 WRF V3.6 MODEL
  *************************************
  Parent domain
  ids,ide,jds,jde  1 271 1 181
  ims,ime,jms,jme  -4 34 -4 16
  ips,ipe,jps,jpe  1 27 1 9
  *************************************
 DYNAMICS OPTION: Eulerian Mass Coordinate
    alloc_space_field: domain  1 ,  84056312  bytes allocated
   med_initialdata_input: calling input_input
Timing for processing wrfinput file (stream 0) for domain        1:    3.86353 elapsed seconds
 INPUT LandUse = "USGS"
  LANDUSE TYPE = "USGS" FOUND 33  CATEGORIES 2  SEASONS WATER CATEGORY =  16  SNOW CATEGORY =  24
 INITIALIZE THREE Noah LSM RELATED TABLES
  LANDUSE TYPE = USGS FOUND 27  CATEGORIES
  INPUT SOIL TEXTURE CLASSIFICATION = STAS
  SOIL TEXTURE CLASSIFICATION = STAS FOUND 19  CATEGORIES
 *********************************************************************
 *             PROGRAM:WRF/CHEM V3.6 MODEL
 *                                                                   *
 *    PLEASE REPORT ANY BUGS TO WRF/CHEM HELP at                     *
 *                                                                   *
 *              wrfchemhelp.gsd@noaa.gov                             *
 *                                                                   *
 *********************************************************************
 WARNING: dust option 1 currently works only with the GOCART aerosol option.
 WARNING: sea salt option 1 currently works only with the GOCART aerosol option.
  *************************************
  Nesting domain
  ids,ide,jds,jde  1 361 1 253
  ims,ime,jms,jme  -4 48 -4 24
  ips,ipe,jps,jpe  1 36 1 13
  INTERMEDIATE domain
  ids,ide,jds,jde  74 199 47 136
  ims,ime,jms,jme  69 97 42 62
  ips,ipe,jps,jpe  72 87 45 52
  *************************************
 d01 2016-02-05_12:00:00  alloc_space_field: domain  2 ,  153144872  bytes allocated
 d01 2016-02-05_12:00:00  alloc_space_field: domain  2 ,  7670964  bytes allocated
 d01 2016-02-05_12:00:00 *** Initializing nest domain # 2 from an input file. ***
 d01 2016-02-05_12:00:00 med_initialdata_input: calling input_input
Timing for processing wrfinput file (stream 0) for domain        2:    7.37954 elapsed seconds
 INPUT LandUse = "USGS"
  LANDUSE TYPE = "USGS" FOUND 33  CATEGORIES 2  SEASONS WATER CATEGORY =  16  SNOW CATEGORY =  24
 INITIALIZE THREE Noah LSM RELATED TABLES
  LANDUSE TYPE = USGS FOUND 27  CATEGORIES
  INPUT SOIL TEXTURE CLASSIFICATION = STAS
  SOIL TEXTURE CLASSIFICATION = STAS FOUND 19  CATEGORIES
 *********************************************************************
 *             PROGRAM:WRF/CHEM V3.6 MODEL
 *                                                                   *
 *    PLEASE REPORT ANY BUGS TO WRF/CHEM HELP at                     *
 *                                                                   *
 *              wrfchemhelp.gsd@noaa.gov                             *
 *                                                                   *
 *********************************************************************
 WARNING: dust option 1 currently works only with the GOCART aerosol option.
 WARNING: sea salt option 1 currently works only with the GOCART aerosol option.
 INPUT LandUse = "USGS"
  LANDUSE TYPE = "USGS" FOUND 33  CATEGORIES 2  SEASONS WATER CATEGORY =  16  SNOW CATEGORY =  24
 INITIALIZE THREE Noah LSM RELATED TABLES
  LANDUSE TYPE = USGS FOUND 27  CATEGORIES
  INPUT SOIL TEXTURE CLASSIFICATION = STAS
  SOIL TEXTURE CLASSIFICATION = STAS FOUND 19  CATEGORIES
 *********************************************************************
 *             PROGRAM:WRF/CHEM V3.6 MODEL
 *                                                                   *
 *    PLEASE REPORT ANY BUGS TO WRF/CHEM HELP at                     *
 *                                                                   *
 *              wrfchemhelp.gsd@noaa.gov                             *
 *                                                                   *
 *********************************************************************
 WARNING: dust option 1 currently works only with the GOCART aerosol option.
 WARNING: sea salt option 1 currently works only with the GOCART aerosol option.
 INPUT LandUse = "USGS"
  LANDUSE TYPE = "USGS" FOUND 33  CATEGORIES 2  SEASONS WATER CATEGORY =  16  SNOW CATEGORY =  24
 INITIALIZE THREE Noah LSM RELATED TABLES
  LANDUSE TYPE = USGS FOUND 27  CATEGORIES
  INPUT SOIL TEXTURE CLASSIFICATION = STAS
  SOIL TEXTURE CLASSIFICATION = STAS FOUND 19  CATEGORIES
 *********************************************************************
 *             PROGRAM:WRF/CHEM V3.6 MODEL
 *                                                                   *
 *    PLEASE REPORT ANY BUGS TO WRF/CHEM HELP at                     *
 *                                                                   *
 *              wrfchemhelp.gsd@noaa.gov                             *
 *                                                                   *
 *********************************************************************
 WARNING: dust option 1 currently works only with the GOCART aerosol option.
 WARNING: sea salt option 1 currently works only with the GOCART aerosol option.
Timing for Writing wrfout_d01_2016-02-05_12:00:00 for domain        1:    1.54880 elapsed seconds
  mediation_integrate: med_read_wrf_chem_emissions: Open file wrfchemi_12z_d01
  HOURLY EMISSIONS UPDATE TIME         .0        .0
 mediation_integrate: med_read_wrf_chem_emissions: Read emissions for time 2016-02-05_12:00:00
 **WARNING** Time in input file not being checked **WARNING**
Timing for processing lateral boundary for domain        1:    3.49204 elapsed seconds
  Tile Strategy is not specified. Assuming 1D-Y
 WRF TILE   1 IS      1 IE     27 JS      1 JE      9
 WRF NUMBER OF TILES =   1
  photolysis_driver: called for domain  1
  *************************************
  Nesting domain
  ids,ide,jds,jde  1 307 1 241
  ims,ime,jms,jme  -4 42 -4 24
  ips,ipe,jps,jpe  1 31 1 12
  INTERMEDIATE domain
  ids,ide,jds,jde  124 231 35 120
  ims,ime,jms,jme  119 145 30 50
  ips,ipe,jps,jpe  122 135 33 40
  *************************************
 d02 2016-02-05_12:00:00  alloc_space_field: domain  3 ,  136269116  bytes allocated
 d02 2016-02-05_12:00:00  alloc_space_field: domain  3 ,  7141932  bytes allocated
 d02 2016-02-05_12:00:00 *** Initializing nest domain # 3 from an input file. ***
 d02 2016-02-05_12:00:00 med_initialdata_input: calling input_input
Timing for processing wrfinput file (stream 0) for domain        3:    5.22636 elapsed seconds
 INPUT LandUse = "USGS"
  LANDUSE TYPE = "USGS" FOUND 33  CATEGORIES 2  SEASONS WATER CATEGORY =  16  SNOW CATEGORY =  24
 INITIALIZE THREE Noah LSM RELATED TABLES
  LANDUSE TYPE = USGS FOUND 27  CATEGORIES
  INPUT SOIL TEXTURE CLASSIFICATION = STAS
  SOIL TEXTURE CLASSIFICATION = STAS FOUND 19  CATEGORIES
 *********************************************************************
 *             PROGRAM:WRF/CHEM V3.6 MODEL
 *                                                                   *
 *    PLEASE REPORT ANY BUGS TO WRF/CHEM HELP at                     *
 *                                                                   *
 *              wrfchemhelp.gsd@noaa.gov                             *
 *                                                                   *
 *********************************************************************
 WARNING: dust option 1 currently works only with the GOCART aerosol option.
 WARNING: sea salt option 1 currently works only with the GOCART aerosol option.
 INPUT LandUse = "USGS"
  LANDUSE TYPE = "USGS" FOUND 33  CATEGORIES 2  SEASONS WATER CATEGORY =  16  SNOW CATEGORY =  24
 INITIALIZE THREE Noah LSM RELATED TABLES
  LANDUSE TYPE = USGS FOUND 27  CATEGORIES
  INPUT SOIL TEXTURE CLASSIFICATION = STAS
  SOIL TEXTURE CLASSIFICATION = STAS FOUND 19  CATEGORIES
 *********************************************************************
 *             PROGRAM:WRF/CHEM V3.6 MODEL
 *                                                                   *
 *    PLEASE REPORT ANY BUGS TO WRF/CHEM HELP at                     *
 *                                                                   *
 *              wrfchemhelp.gsd@noaa.gov                             *
 *                                                                   *
 *********************************************************************
 WARNING: dust option 1 currently works only with the GOCART aerosol option.
 WARNING: sea salt option 1 currently works only with the GOCART aerosol option.
 INPUT LandUse = "USGS"
  LANDUSE TYPE = "USGS" FOUND 33  CATEGORIES 2  SEASONS WATER CATEGORY =  16  SNOW CATEGORY =  24
 INITIALIZE THREE Noah LSM RELATED TABLES
  LANDUSE TYPE = USGS FOUND 27  CATEGORIES
  INPUT SOIL TEXTURE CLASSIFICATION = STAS
  SOIL TEXTURE CLASSIFICATION = STAS FOUND 19  CATEGORIES
 *********************************************************************
 *             PROGRAM:WRF/CHEM V3.6 MODEL
 *                                                                   *
 *    PLEASE REPORT ANY BUGS TO WRF/CHEM HELP at                     *
 *                                                                   *
 *              wrfchemhelp.gsd@noaa.gov                             *
 *                                                                   *
 *********************************************************************
 WARNING: dust option 1 currently works only with the GOCART aerosol option.
 WARNING: sea salt option 1 currently works only with the GOCART aerosol option.
  *************************************
  Nesting domain
  ids,ide,jds,jde  1 217 1 388
  ims,ime,jms,jme  -4 33 -4 30
  ips,ipe,jps,jpe  1 22 1 20
  INTERMEDIATE domain
  ids,ide,jds,jde  225 302 83 217
  ims,ime,jms,jme  220 243 78 101
  ips,ipe,jps,jpe  223 233 81 91
  *************************************
 d02 2016-02-05_12:00:00  alloc_space_field: domain  4 ,  132919064  bytes allocated
 d02 2016-02-05_12:00:00 *** Initializing nest domain # 4 from an input file. ***
 d02 2016-02-05_12:00:00 med_initialdata_input: calling input_input
Timing for processing wrfinput file (stream 0) for domain        4:    6.98731 elapsed seconds
 INPUT LandUse = "USGS"
  LANDUSE TYPE = "USGS" FOUND 33  CATEGORIES 2  SEASONS WATER CATEGORY =  16  SNOW CATEGORY =  24
 INITIALIZE THREE Noah LSM RELATED TABLES
  LANDUSE TYPE = USGS FOUND 27  CATEGORIES
  INPUT SOIL TEXTURE CLASSIFICATION = STAS
  SOIL TEXTURE CLASSIFICATION = STAS FOUND 19  CATEGORIES
 *********************************************************************
 *             PROGRAM:WRF/CHEM V3.6 MODEL
 *                                                                   *
 *    PLEASE REPORT ANY BUGS TO WRF/CHEM HELP at                     *
 *                                                                   *
 *              wrfchemhelp.gsd@noaa.gov                             *
 *                                                                   *
 *********************************************************************
 WARNING: dust option 1 currently works only with the GOCART aerosol option.
 WARNING: sea salt option 1 currently works only with the GOCART aerosol option.
 INPUT LandUse = "USGS"
  LANDUSE TYPE = "USGS" FOUND 33  CATEGORIES 2  SEASONS WATER CATEGORY =  16  SNOW CATEGORY =  24
 INITIALIZE THREE Noah LSM RELATED TABLES
  LANDUSE TYPE = USGS FOUND 27  CATEGORIES
  INPUT SOIL TEXTURE CLASSIFICATION = STAS
  SOIL TEXTURE CLASSIFICATION = STAS FOUND 19  CATEGORIES
 *********************************************************************
 *             PROGRAM:WRF/CHEM V3.6 MODEL
 *                                                                   *
 *    PLEASE REPORT ANY BUGS TO WRF/CHEM HELP at                     *
 *                                                                   *
 *              wrfchemhelp.gsd@noaa.gov                             *
 *                                                                   *
 *********************************************************************
 WARNING: dust option 1 currently works only with the GOCART aerosol option.
 WARNING: sea salt option 1 currently works only with the GOCART aerosol option.
 INPUT LandUse = "USGS"
  LANDUSE TYPE = "USGS" FOUND 33  CATEGORIES 2  SEASONS WATER CATEGORY =  16  SNOW CATEGORY =  24
 INITIALIZE THREE Noah LSM RELATED TABLES
  LANDUSE TYPE = USGS FOUND 27  CATEGORIES
  INPUT SOIL TEXTURE CLASSIFICATION = STAS
  SOIL TEXTURE CLASSIFICATION = STAS FOUND 19  CATEGORIES
 *********************************************************************
 *             PROGRAM:WRF/CHEM V3.6 MODEL
 *                                                                   *
 *    PLEASE REPORT ANY BUGS TO WRF/CHEM HELP at                     *
 *                                                                   *
 *              wrfchemhelp.gsd@noaa.gov                             *
 *                                                                   *
 *********************************************************************
 WARNING: dust option 1 currently works only with the GOCART aerosol option.
 WARNING: sea salt option 1 currently works only with the GOCART aerosol option.
Timing for Writing wrfout_d02_2016-02-05_12:00:00 for domain        2:    2.07950 elapsed seconds
  mediation_integrate: med_read_wrf_chem_emissions: Open file wrfchemi_12z_d02
  HOURLY EMISSIONS UPDATE TIME         .0        .0
 mediation_integrate: med_read_wrf_chem_emissions: Read emissions for time 2016-02-05_12:00:00
 **WARNING** Time in input file not being checked **WARNING**
  Tile Strategy is not specified. Assuming 1D-Y
 WRF TILE   1 IS      1 IE     36 JS      1 JE     13
 WRF NUMBER OF TILES =   1
  photolysis_driver: called for domain  2
Timing for Writing wrfout_d03_2016-02-05_12:00:00 for domain        3:    1.95874 elapsed seconds
  mediation_integrate: med_read_wrf_chem_emissions: Open file wrfchemi_12z_d03
  HOURLY EMISSIONS UPDATE TIME         .0        .0
 mediation_integrate: med_read_wrf_chem_emissions: Read emissions for time 2016-02-05_12:00:00
 **WARNING** Time in input file not being checked **WARNING**
  Tile Strategy is not specified. Assuming 1D-Y
 WRF TILE   1 IS      1 IE     31 JS      1 JE     12
 WRF NUMBER OF TILES =   1
  photolysis_driver: called for domain  3
Timing for main: time 2016-02-05_12:00:13 on domain   3:    5.05650 elapsed seconds
Timing for main: time 2016-02-05_12:00:26 on domain   3:     .24240 elapsed seconds
Timing for main: time 2016-02-05_12:00:40 on domain   3:     .15645 elapsed seconds
Timing for Writing wrfout_d04_2016-02-05_12:00:00 for domain        4:    2.10227 elapsed seconds
  mediation_integrate: med_read_wrf_chem_emissions: Open file wrfchemi_12z_d04
  HOURLY EMISSIONS UPDATE TIME         .0        .0
 mediation_integrate: med_read_wrf_chem_emissions: Read emissions for time 2016-02-05_12:00:00
 **WARNING** Time in input file not being checked **WARNING**
  Tile Strategy is not specified. Assuming 1D-Y
 WRF TILE   1 IS      1 IE     22 JS      1 JE     20
 WRF NUMBER OF TILES =   1
  photolysis_driver: called for domain  4
Timing for main: time 2016-02-05_12:00:20 on domain   4:    5.13115 elapsed seconds
Timing for main: time 2016-02-05_12:00:40 on domain   4:     .15209 elapsed seconds
Timing for main: time 2016-02-05_12:00:40 on domain   2:   31.40445 elapsed seconds
Timing for main: time 2016-02-05_12:00:53 on domain   3:     .16010 elapsed seconds
Timing for main: time 2016-02-05_12:01:06 on domain   3:     .18054 elapsed seconds
Timing for main: time 2016-02-05_12:01:20 on domain   3:     .21833 elapsed seconds
Timing for main: time 2016-02-05_12:01:00 on domain   4:     .17816 elapsed seconds
Timing for main: time 2016-02-05_12:01:20 on domain   4:     .17301 elapsed seconds
Timing for main: time 2016-02-05_12:01:20 on domain   2:    1.47556 elapsed seconds
Timing for main: time 2016-02-05_12:01:33 on domain   3:     .15884 elapsed seconds
Timing for main: time 2016-02-05_12:01:46 on domain   3:     .14743 elapsed seconds
Timing for main: time 2016-02-05_12:02:00 on domain   3:     .14748 elapsed seconds
Timing for main: time 2016-02-05_12:01:40 on domain   4:     .18112 elapsed seconds
Timing for main: time 2016-02-05_12:02:00 on domain   4:     .18433 elapsed seconds
Timing for main: time 2016-02-05_12:02:00 on domain   2:    1.41449 elapsed seconds
Timing for main: time 2016-02-05_12:02:00 on domain   1:   51.26187 elapsed seconds
Timing for main: time 2016-02-05_12:02:13 on domain   3:     .16541 elapsed seconds
Timing for main: time 2016-02-05_12:02:26 on domain   3:     .15349 elapsed seconds
Timing for main: time 2016-02-05_12:02:40 on domain   3:     .15387 elapsed seconds
Timing for main: time 2016-02-05_12:02:20 on domain   4:     .18087 elapsed seconds
Timing for main: time 2016-02-05_12:02:40 on domain   4:     .17681 elapsed seconds
Timing for main: time 2016-02-05_12:02:40 on domain   2:    1.47488 elapsed seconds
Timing for main: time 2016-02-05_12:02:53 on domain   3:     .16086 elapsed seconds
Timing for main: time 2016-02-05_12:03:06 on domain   3:     .14702 elapsed seconds
Timing for main: time 2016-02-05_12:03:20 on domain   3:     .14916 elapsed seconds
Timing for main: time 2016-02-05_12:03:00 on domain   4:     .18125 elapsed seconds
Timing for main: time 2016-02-05_12:03:20 on domain   4:     .18145 elapsed seconds
Timing for main: time 2016-02-05_12:03:20 on domain   2:    1.42397 elapsed seconds
Timing for main: time 2016-02-05_12:03:33 on domain   3:     .16930 elapsed seconds
Timing for main: time 2016-02-05_12:03:46 on domain   3:     .15441 elapsed seconds
Timing for main: time 2016-02-05_12:04:00 on domain   3:     .15113 elapsed seconds
Timing for main: time 2016-02-05_12:03:40 on domain   4:     .28122 elapsed seconds
Timing for main: time 2016-02-05_12:04:00 on domain   4:     .22715 elapsed seconds
Timing for main: time 2016-02-05_12:04:00 on domain   2:    1.58585 elapsed seconds
Timing for main: time 2016-02-05_12:04:00 on domain   1:    4.79059 elapsed seconds
Timing for main: time 2016-02-05_12:04:13 on domain   3:     .15857 elapsed seconds
Timing for main: time 2016-02-05_12:04:26 on domain   3:     .14719 elapsed seconds
Timing for main: time 2016-02-05_12:04:40 on domain   3:     .14752 elapsed seconds
Timing for main: time 2016-02-05_12:04:20 on domain   4:     .17952 elapsed seconds
Timing for main: time 2016-02-05_12:04:40 on domain   4:     .17390 elapsed seconds
Timing for main: time 2016-02-05_12:04:40 on domain   2:    1.40317 elapsed seconds
Timing for main: time 2016-02-05_12:04:53 on domain   3:     .15864 elapsed seconds
Timing for main: time 2016-02-05_12:05:06 on domain   3:     .15431 elapsed seconds
Timing for main: time 2016-02-05_12:05:20 on domain   3:     .14703 elapsed seconds
Timing for main: time 2016-02-05_12:05:00 on domain   4:     .18668 elapsed seconds
Timing for main: time 2016-02-05_12:05:20 on domain   4:     .17388 elapsed seconds
Timing for main: time 2016-02-05_12:05:20 on domain   2:    1.42435 elapsed seconds
Timing for main: time 2016-02-05_12:05:33 on domain   3:     .15893 elapsed seconds
Timing for main: time 2016-02-05_12:05:46 on domain   3:     .14701 elapsed seconds
Timing for main: time 2016-02-05_12:06:00 on domain   3:     .14798 elapsed seconds
Timing for main: time 2016-02-05_12:05:40 on domain   4:     .18027 elapsed seconds
Timing for main: time 2016-02-05_12:06:00 on domain   4:     .17419 elapsed seconds
Timing for main: time 2016-02-05_12:06:00 on domain   2:    1.40594 elapsed seconds
Timing for main: time 2016-02-05_12:06:00 on domain   1:    4.56884 elapsed seconds
Timing for main: time 2016-02-05_12:06:13 on domain   3:     .16116 elapsed seconds
Timing for main: time 2016-02-05_12:06:26 on domain   3:     .15151 elapsed seconds
Timing for main: time 2016-02-05_12:06:40 on domain   3:     .14666 elapsed seconds
Timing for main: time 2016-02-05_12:06:20 on domain   4:     .18049 elapsed seconds
Timing for main: time 2016-02-05_12:06:40 on domain   4:     .17514 elapsed seconds
Timing for main: time 2016-02-05_12:06:40 on domain   2:    1.41747 elapsed seconds
Timing for main: time 2016-02-05_12:06:53 on domain   3:     .15839 elapsed seconds
Timing for main: time 2016-02-05_12:07:06 on domain   3:     .14723 elapsed seconds
Timing for main: time 2016-02-05_12:07:20 on domain   3:     .14671 elapsed seconds
Timing for main: time 2016-02-05_12:07:00 on domain   4:     .18206 elapsed seconds
Timing for main: time 2016-02-05_12:07:20 on domain   4:     .17406 elapsed seconds
Timing for main: time 2016-02-05_12:07:20 on domain   2:    1.41015 elapsed seconds
Timing for main: time 2016-02-05_12:07:33 on domain   3:     .15939 elapsed seconds
Timing for main: time 2016-02-05_12:07:46 on domain   3:     .14655 elapsed seconds
Timing for main: time 2016-02-05_12:08:00 on domain   3:     .14917 elapsed seconds
Timing for main: time 2016-02-05_12:07:40 on domain   4:     .18597 elapsed seconds
Timing for main: time 2016-02-05_12:08:00 on domain   4:     .17417 elapsed seconds
Timing for main: time 2016-02-05_12:08:00 on domain   2:    1.41183 elapsed seconds
Timing for main: time 2016-02-05_12:08:00 on domain   1:    4.55267 elapsed seconds
Timing for main: time 2016-02-05_12:08:13 on domain   3:     .15857 elapsed seconds
Timing for main: time 2016-02-05_12:08:26 on domain   3:     .14681 elapsed seconds
Timing for main: time 2016-02-05_12:08:40 on domain   3:     .14789 elapsed seconds
Timing for main: time 2016-02-05_12:08:20 on domain   4:     .18097 elapsed seconds
Timing for main: time 2016-02-05_12:08:40 on domain   4:     .17403 elapsed seconds
Timing for main: time 2016-02-05_12:08:40 on domain   2:    1.41085 elapsed seconds
Timing for main: time 2016-02-05_12:08:53 on domain   3:     .15850 elapsed seconds
Timing for main: time 2016-02-05_12:09:06 on domain   3:     .14725 elapsed seconds
Timing for main: time 2016-02-05_12:09:20 on domain   3:     .14752 elapsed seconds
Timing for main: time 2016-02-05_12:09:00 on domain   4:     .17942 elapsed seconds
Timing for main: time 2016-02-05_12:09:20 on domain   4:     .17396 elapsed seconds
Timing for main: time 2016-02-05_12:09:20 on domain   2:    1.40301 elapsed seconds
Timing for main: time 2016-02-05_12:09:33 on domain   3:     .15860 elapsed seconds
Timing for main: time 2016-02-05_12:09:46 on domain   3:     .14716 elapsed seconds
Timing for main: time 2016-02-05_12:10:00 on domain   3:     .14751 elapsed seconds
Timing for main: time 2016-02-05_12:09:40 on domain   4:     .18003 elapsed seconds
Timing for main: time 2016-02-05_12:10:00 on domain   4:     .18170 elapsed seconds
Timing for main: time 2016-02-05_12:10:00 on domain   2:    1.41097 elapsed seconds
Timing for main: time 2016-02-05_12:10:00 on domain   1:    4.53750 elapsed seconds
Timing for main: time 2016-02-05_12:10:13 on domain   3:     .16509 elapsed seconds
Timing for main: time 2016-02-05_12:10:26 on domain   3:     .14740 elapsed seconds
Timing for main: time 2016-02-05_12:10:40 on domain   3:     .14682 elapsed seconds
Timing for main: time 2016-02-05_12:10:20 on domain   4:     .17964 elapsed seconds
Timing for main: time 2016-02-05_12:10:40 on domain   4:     .17436 elapsed seconds
Timing for main: time 2016-02-05_12:10:40 on domain   2:    1.42299 elapsed seconds
Timing for main: time 2016-02-05_12:10:53 on domain   3:     .21322 elapsed seconds
Timing for main: time 2016-02-05_12:11:06 on domain   3:     .20158 elapsed seconds
Timing for main: time 2016-02-05_12:11:20 on domain   3:     .16169 elapsed seconds
Timing for main: time 2016-02-05_12:11:00 on domain   4:     .18013 elapsed seconds
Timing for main: time 2016-02-05_12:11:20 on domain   4:     .17407 elapsed seconds
Timing for main: time 2016-02-05_12:11:20 on domain   2:    1.52841 elapsed seconds
Timing for main: time 2016-02-05_12:11:33 on domain   3:     .15869 elapsed seconds
Timing for main: time 2016-02-05_12:11:46 on domain   3:     .15222 elapsed seconds
Timing for main: time 2016-02-05_12:12:00 on domain   3:     .14627 elapsed seconds
Timing for main: time 2016-02-05_12:11:40 on domain   4:     .18061 elapsed seconds
Timing for main: time 2016-02-05_12:12:00 on domain   4:     .17492 elapsed seconds
Timing for main: time 2016-02-05_12:12:00 on domain   2:    1.41171 elapsed seconds
Timing for main: time 2016-02-05_12:12:00 on domain   1:    4.68304 elapsed seconds
Timing for main: time 2016-02-05_12:12:13 on domain   3:     .15893 elapsed seconds
Timing for main: time 2016-02-05_12:12:26 on domain   3:     .15103 elapsed seconds
Timing for main: time 2016-02-05_12:12:40 on domain   3:     .16357 elapsed seconds
Timing for main: time 2016-02-05_12:12:20 on domain   4:     .17984 elapsed seconds
Timing for main: time 2016-02-05_12:12:40 on domain   4:     .17427 elapsed seconds
Timing for main: time 2016-02-05_12:12:40 on domain   2:    1.42636 elapsed seconds
Timing for main: time 2016-02-05_12:12:53 on domain   3:     .16384 elapsed seconds
Timing for main: time 2016-02-05_12:13:06 on domain   3:     .14539 elapsed seconds
Timing for main: time 2016-02-05_12:13:20 on domain   3:     .14953 elapsed seconds
Timing for main: time 2016-02-05_12:13:00 on domain   4:     .18068 elapsed seconds
Timing for main: time 2016-02-05_12:13:20 on domain   4:     .17449 elapsed seconds
Timing for main: time 2016-02-05_12:13:20 on domain   2:    1.40900 elapsed seconds
Timing for main: time 2016-02-05_12:13:33 on domain   3:     .15819 elapsed seconds
Timing for main: time 2016-02-05_12:13:46 on domain   3:     .14695 elapsed seconds
Timing for main: time 2016-02-05_12:14:00 on domain   3:     .14706 elapsed seconds
Timing for main: time 2016-02-05_12:13:40 on domain   4:     .17977 elapsed seconds
Timing for main: time 2016-02-05_12:14:00 on domain   4:     .17413 elapsed seconds
Timing for main: time 2016-02-05_12:14:00 on domain   2:    1.40523 elapsed seconds
Timing for main: time 2016-02-05_12:14:00 on domain   1:    4.55294 elapsed seconds
Timing for main: time 2016-02-05_12:14:13 on domain   3:     .15811 elapsed seconds
Timing for main: time 2016-02-05_12:14:26 on domain   3:     .14738 elapsed seconds
Timing for main: time 2016-02-05_12:14:40 on domain   3:     .14715 elapsed seconds
Timing for main: time 2016-02-05_12:14:20 on domain   4:     .18107 elapsed seconds
Timing for main: time 2016-02-05_12:14:40 on domain   4:     .17457 elapsed seconds
Timing for main: time 2016-02-05_12:14:40 on domain   2:    1.41063 elapsed seconds
Timing for main: time 2016-02-05_12:14:53 on domain   3:     .16445 elapsed seconds
Timing for main: time 2016-02-05_12:15:06 on domain   3:     .14703 elapsed seconds
Timing for main: time 2016-02-05_12:15:20 on domain   3:     .15651 elapsed seconds
Timing for main: time 2016-02-05_12:15:00 on domain   4:     .18755 elapsed seconds
Timing for main: time 2016-02-05_12:15:20 on domain   4:     .17387 elapsed seconds
Timing for main: time 2016-02-05_12:15:20 on domain   2:    1.42559 elapsed seconds
Timing for main: time 2016-02-05_12:15:33 on domain   3:     .15876 elapsed seconds
Timing for main: time 2016-02-05_12:15:46 on domain   3:     .14705 elapsed seconds
Timing for main: time 2016-02-05_12:16:00 on domain   3:     .14696 elapsed seconds
Timing for main: time 2016-02-05_12:15:40 on domain   4:     .17982 elapsed seconds
Timing for main: time 2016-02-05_12:16:00 on domain   4:     .17523 elapsed seconds
Timing for main: time 2016-02-05_12:16:00 on domain   2:    1.41254 elapsed seconds
Timing for main: time 2016-02-05_12:16:00 on domain   1:    4.56108 elapsed seconds
Timing for main: time 2016-02-05_12:16:13 on domain   3:     .15912 elapsed seconds
Timing for main: time 2016-02-05_12:16:26 on domain   3:     .14671 elapsed seconds
Timing for main: time 2016-02-05_12:16:40 on domain   3:     .14704 elapsed seconds
Timing for main: time 2016-02-05_12:16:20 on domain   4:     .17958 elapsed seconds
Timing for main: time 2016-02-05_12:16:40 on domain   4:     .17462 elapsed seconds
Timing for main: time 2016-02-05_12:16:40 on domain   2:    1.40872 elapsed seconds
Timing for main: time 2016-02-05_12:16:53 on domain   3:     .15871 elapsed seconds
Timing for main: time 2016-02-05_12:17:06 on domain   3:     .14696 elapsed seconds
Timing for main: time 2016-02-05_12:17:20 on domain   3:     .14729 elapsed seconds
Timing for main: time 2016-02-05_12:17:00 on domain   4:     .18020 elapsed seconds
Timing for main: time 2016-02-05_12:17:20 on domain   4:     .17898 elapsed seconds
Timing for main: time 2016-02-05_12:17:20 on domain   2:    1.40818 elapsed seconds
Timing for main: time 2016-02-05_12:17:33 on domain   3:     .19806 elapsed seconds
Timing for main: time 2016-02-05_12:17:46 on domain   3:     .19737 elapsed seconds
Timing for main: time 2016-02-05_12:18:00 on domain   3:     .15178 elapsed seconds
Timing for main: time 2016-02-05_12:17:40 on domain   4:     .18047 elapsed seconds
Timing for main: time 2016-02-05_12:18:00 on domain   4:     .17418 elapsed seconds
Timing for main: time 2016-02-05_12:18:00 on domain   2:    1.49794 elapsed seconds
Timing for main: time 2016-02-05_12:18:00 on domain   1:    4.63471 elapsed seconds
Timing for main: time 2016-02-05_12:18:13 on domain   3:     .15886 elapsed seconds
Timing for main: time 2016-02-05_12:18:26 on domain   3:     .14678 elapsed seconds
Timing for main: time 2016-02-05_12:18:40 on domain   3:     .14825 elapsed seconds
Timing for main: time 2016-02-05_12:18:20 on domain   4:     .17973 elapsed seconds
Timing for main: time 2016-02-05_12:18:40 on domain   4:     .17423 elapsed seconds
Timing for main: time 2016-02-05_12:18:40 on domain   2:    1.40794 elapsed seconds
Timing for main: time 2016-02-05_12:18:53 on domain   3:     .15914 elapsed seconds
Timing for main: time 2016-02-05_12:19:06 on domain   3:     .14721 elapsed seconds
Timing for main: time 2016-02-05_12:19:20 on domain   3:     .14720 elapsed seconds
Timing for main: time 2016-02-05_12:19:00 on domain   4:     .18001 elapsed seconds
Timing for main: time 2016-02-05_12:19:20 on domain   4:     .17449 elapsed seconds
Timing for main: time 2016-02-05_12:19:20 on domain   2:    1.40355 elapsed seconds
Timing for main: time 2016-02-05_12:19:33 on domain   3:     .15895 elapsed seconds
Timing for main: time 2016-02-05_12:19:46 on domain   3:     .14676 elapsed seconds
Timing for main: time 2016-02-05_12:20:00 on domain   3:     .14715 elapsed seconds
Timing for main: time 2016-02-05_12:19:40 on domain   4:     .18033 elapsed seconds
Timing for main: time 2016-02-05_12:20:00 on domain   4:     .18156 elapsed seconds
Timing for main: time 2016-02-05_12:20:00 on domain   2:    1.41096 elapsed seconds
Timing for main: time 2016-02-05_12:20:00 on domain   1:    4.53585 elapsed seconds
Timing for main: time 2016-02-05_12:20:13 on domain   3:     .15883 elapsed seconds
Timing for main: time 2016-02-05_12:20:26 on domain   3:     .15319 elapsed seconds
Timing for main: time 2016-02-05_12:20:40 on domain   3:     .14722 elapsed seconds
Timing for main: time 2016-02-05_12:20:20 on domain   4:     .17942 elapsed seconds
Timing for main: time 2016-02-05_12:20:40 on domain   4:     .17416 elapsed seconds
Timing for main: time 2016-02-05_12:20:40 on domain   2:    1.41337 elapsed seconds
Timing for main: time 2016-02-05_12:20:53 on domain   3:     .15870 elapsed seconds
Timing for main: time 2016-02-05_12:21:06 on domain   3:     .15231 elapsed seconds
Timing for main: time 2016-02-05_12:21:20 on domain   3:     .14703 elapsed seconds
Timing for main: time 2016-02-05_12:21:00 on domain   4:     .22132 elapsed seconds
Timing for main: time 2016-02-05_12:21:20 on domain   4:     .21951 elapsed seconds
Timing for main: time 2016-02-05_12:21:20 on domain   2:    1.50309 elapsed seconds
Timing for main: time 2016-02-05_12:21:33 on domain   3:     .15814 elapsed seconds
Timing for main: time 2016-02-05_12:21:46 on domain   3:     .14715 elapsed seconds
Timing for main: time 2016-02-05_12:22:00 on domain   3:     .14942 elapsed seconds
Timing for main: time 2016-02-05_12:21:40 on domain   4:     .17953 elapsed seconds
Timing for main: time 2016-02-05_12:22:00 on domain   4:     .17411 elapsed seconds
Timing for main: time 2016-02-05_12:22:00 on domain   2:    1.40496 elapsed seconds
Timing for main: time 2016-02-05_12:22:00 on domain   1:    4.63515 elapsed seconds
Timing for main: time 2016-02-05_12:22:13 on domain   3:     .15908 elapsed seconds
Timing for main: time 2016-02-05_12:22:26 on domain   3:     .14727 elapsed seconds
Timing for main: time 2016-02-05_12:22:40 on domain   3:     .14727 elapsed seconds
Timing for main: time 2016-02-05_12:22:20 on domain   4:     .18190 elapsed seconds
Timing for main: time 2016-02-05_12:22:40 on domain   4:     .17411 elapsed seconds
Timing for main: time 2016-02-05_12:22:40 on domain   2:    1.41101 elapsed seconds
Timing for main: time 2016-02-05_12:22:53 on domain   3:     .15846 elapsed seconds
Timing for main: time 2016-02-05_12:23:06 on domain   3:     .14719 elapsed seconds
Timing for main: time 2016-02-05_12:23:20 on domain   3:     .14695 elapsed seconds
Timing for main: time 2016-02-05_12:23:00 on domain   4:     .17940 elapsed seconds
Timing for main: time 2016-02-05_12:23:20 on domain   4:     .17977 elapsed seconds
Timing for main: time 2016-02-05_12:23:20 on domain   2:    1.40755 elapsed seconds
Timing for main: time 2016-02-05_12:23:33 on domain   3:     .15832 elapsed seconds
Timing for main: time 2016-02-05_12:23:46 on domain   3:     .14672 elapsed seconds
Timing for main: time 2016-02-05_12:24:00 on domain   3:     .14704 elapsed seconds
Timing for main: time 2016-02-05_12:23:40 on domain   4:     .17945 elapsed seconds
Timing for main: time 2016-02-05_12:24:00 on domain   4:     .17393 elapsed seconds
Timing for main: time 2016-02-05_12:24:00 on domain   2:    1.40186 elapsed seconds
Timing for main: time 2016-02-05_12:24:00 on domain   1:    4.54056 elapsed seconds
Timing for main: time 2016-02-05_12:24:13 on domain   3:     .15825 elapsed seconds
Timing for main: time 2016-02-05_12:24:26 on domain   3:     .14664 elapsed seconds
Timing for main: time 2016-02-05_12:24:40 on domain   3:     .14841 elapsed seconds
Timing for main: time 2016-02-05_12:24:20 on domain   4:     .17984 elapsed seconds
Timing for main: time 2016-02-05_12:24:40 on domain   4:     .17402 elapsed seconds
Timing for main: time 2016-02-05_12:24:40 on domain   2:    1.40910 elapsed seconds
Timing for main: time 2016-02-05_12:24:53 on domain   3:     .16074 elapsed seconds
Timing for main: time 2016-02-05_12:25:06 on domain   3:     .14526 elapsed seconds
Timing for main: time 2016-02-05_12:25:20 on domain   3:     .14759 elapsed seconds
Timing for main: time 2016-02-05_12:25:00 on domain   4:     .18792 elapsed seconds
Timing for main: time 2016-02-05_12:25:20 on domain   4:     .17406 elapsed seconds
Timing for main: time 2016-02-05_12:25:20 on domain   2:    1.41147 elapsed seconds
Timing for main: time 2016-02-05_12:25:33 on domain   3:     .16283 elapsed seconds
Timing for main: time 2016-02-05_12:25:46 on domain   3:     .14777 elapsed seconds
Timing for main: time 2016-02-05_12:26:00 on domain   3:     .14713 elapsed seconds
Timing for main: time 2016-02-05_12:25:40 on domain   4:     .17934 elapsed seconds
Timing for main: time 2016-02-05_12:26:00 on domain   4:     .17415 elapsed seconds
Timing for main: time 2016-02-05_12:26:00 on domain   2:    1.41016 elapsed seconds
Timing for main: time 2016-02-05_12:26:00 on domain   1:    4.54344 elapsed seconds
Timing for main: time 2016-02-05_12:26:13 on domain   3:     .15941 elapsed seconds
Timing for main: time 2016-02-05_12:26:26 on domain   3:     .14894 elapsed seconds
Timing for main: time 2016-02-05_12:26:40 on domain   3:     .14736 elapsed seconds
Timing for main: time 2016-02-05_12:26:20 on domain   4:     .17804 elapsed seconds
Timing for main: time 2016-02-05_12:26:40 on domain   4:     .17396 elapsed seconds
Timing for main: time 2016-02-05_12:26:40 on domain   2:    1.41829 elapsed seconds
Timing for main: time 2016-02-05_12:26:53 on domain   3:     .15899 elapsed seconds
Timing for main: time 2016-02-05_12:27:06 on domain   3:     .14681 elapsed seconds
Timing for main: time 2016-02-05_12:27:20 on domain   3:     .14699 elapsed seconds
Timing for main: time 2016-02-05_12:27:00 on domain   4:     .17980 elapsed seconds
Timing for main: time 2016-02-05_12:27:20 on domain   4:     .17343 elapsed seconds
Timing for main: time 2016-02-05_12:27:20 on domain   2:    1.40201 elapsed seconds
Timing for main: time 2016-02-05_12:27:33 on domain   3:     .15881 elapsed seconds
Timing for main: time 2016-02-05_12:27:46 on domain   3:     .14705 elapsed seconds
Timing for main: time 2016-02-05_12:28:00 on domain   3:     .15245 elapsed seconds
Timing for main: time 2016-02-05_12:27:40 on domain   4:     .17956 elapsed seconds
Timing for main: time 2016-02-05_12:28:00 on domain   4:     .17403 elapsed seconds
Timing for main: time 2016-02-05_12:28:00 on domain   2:    1.40667 elapsed seconds
Timing for main: time 2016-02-05_12:28:00 on domain   1:    4.55259 elapsed seconds
  photolysis_driver: called for domain  1
Timing for main: time 2016-02-05_12:28:13 on domain   3:     .15949 elapsed seconds
Timing for main: time 2016-02-05_12:28:26 on domain   3:     .14690 elapsed seconds
Timing for main: time 2016-02-05_12:28:40 on domain   3:     .14689 elapsed seconds
Timing for main: time 2016-02-05_12:28:20 on domain   4:     .17952 elapsed seconds
Timing for main: time 2016-02-05_12:28:40 on domain   4:     .17409 elapsed seconds
Timing for main: time 2016-02-05_12:28:40 on domain   2:    1.40894 elapsed seconds
Timing for main: time 2016-02-05_12:28:53 on domain   3:     .15875 elapsed seconds
Timing for main: time 2016-02-05_12:29:06 on domain   3:     .14849 elapsed seconds
Timing for main: time 2016-02-05_12:29:20 on domain   3:     .14932 elapsed seconds
Timing for main: time 2016-02-05_12:29:00 on domain   4:     .18068 elapsed seconds
Timing for main: time 2016-02-05_12:29:20 on domain   4:     .17394 elapsed seconds
Timing for main: time 2016-02-05_12:29:20 on domain   2:    1.40767 elapsed seconds
  photolysis_driver: called for domain  2
Timing for main: time 2016-02-05_12:29:33 on domain   3:     .15810 elapsed seconds
Timing for main: time 2016-02-05_12:29:46 on domain   3:     .14688 elapsed seconds
  photolysis_driver: called for domain  3
Timing for main: time 2016-02-05_12:30:00 on domain   3:     .84935 elapsed seconds
Timing for main: time 2016-02-05_12:29:40 on domain   4:     .17916 elapsed seconds
  photolysis_driver: called for domain  4
Timing for main: time 2016-02-05_12:30:00 on domain   4:     .99663 elapsed seconds
Timing for main: time 2016-02-05_12:30:00 on domain   2:    3.78369 elapsed seconds
Timing for main: time 2016-02-05_12:30:00 on domain   1:    7.43022 elapsed seconds
Timing for main: time 2016-02-05_12:30:13 on domain   3:     .29437 elapsed seconds
Timing for main: time 2016-02-05_12:30:26 on domain   3:     .14597 elapsed seconds
Timing for main: time 2016-02-05_12:30:40 on domain   3:     .15277 elapsed seconds
Timing for main: time 2016-02-05_12:30:20 on domain   4:     .34026 elapsed seconds
Timing for main: time 2016-02-05_12:30:40 on domain   4:     .17301 elapsed seconds
Timing for main: time 2016-02-05_12:30:40 on domain   2:    1.88092 elapsed seconds
Timing for main: time 2016-02-05_12:30:53 on domain   3:     .15818 elapsed seconds
Timing for main: time 2016-02-05_12:31:06 on domain   3:     .14591 elapsed seconds
Timing for main: time 2016-02-05_12:31:20 on domain   3:     .14790 elapsed seconds
Timing for main: time 2016-02-05_12:31:00 on domain   4:     .17842 elapsed seconds
Timing for main: time 2016-02-05_12:31:20 on domain   4:     .17285 elapsed seconds
Timing for main: time 2016-02-05_12:31:20 on domain   2:    1.39791 elapsed seconds
Timing for main: time 2016-02-05_12:31:33 on domain   3:     .15782 elapsed seconds
Timing for main: time 2016-02-05_12:31:46 on domain   3:     .14634 elapsed seconds
Timing for main: time 2016-02-05_12:32:00 on domain   3:     .14588 elapsed seconds
Timing for main: time 2016-02-05_12:31:40 on domain   4:     .18172 elapsed seconds
Timing for main: time 2016-02-05_12:32:00 on domain   4:     .17417 elapsed seconds
Timing for main: time 2016-02-05_12:32:00 on domain   2:    1.40861 elapsed seconds
Timing for main: time 2016-02-05_12:32:00 on domain   1:    5.12108 elapsed seconds
Timing for main: time 2016-02-05_12:32:13 on domain   3:     .15873 elapsed seconds
Timing for main: time 2016-02-05_12:32:26 on domain   3:     .14571 elapsed seconds
Timing for main: time 2016-02-05_12:32:40 on domain   3:     .14716 elapsed seconds
Timing for main: time 2016-02-05_12:32:20 on domain   4:     .18413 elapsed seconds
Timing for main: time 2016-02-05_12:32:40 on domain   4:     .17282 elapsed seconds
Timing for main: time 2016-02-05_12:32:40 on domain   2:    1.40851 elapsed seconds
Timing for main: time 2016-02-05_12:32:53 on domain   3:     .15816 elapsed seconds
Timing for main: time 2016-02-05_12:33:06 on domain   3:     .14616 elapsed seconds
Timing for main: time 2016-02-05_12:33:20 on domain   3:     .14656 elapsed seconds
Timing for main: time 2016-02-05_12:33:00 on domain   4:     .17820 elapsed seconds
Timing for main: time 2016-02-05_12:33:20 on domain   4:     .17297 elapsed seconds
Timing for main: time 2016-02-05_12:33:20 on domain   2:    1.39666 elapsed seconds
Timing for main: time 2016-02-05_12:33:33 on domain   3:     .15744 elapsed seconds
Timing for main: time 2016-02-05_12:33:46 on domain   3:     .14631 elapsed seconds
Timing for main: time 2016-02-05_12:34:00 on domain   3:     .14813 elapsed seconds
Timing for main: time 2016-02-05_12:33:40 on domain   4:     .17834 elapsed seconds
Timing for main: time 2016-02-05_12:34:00 on domain   4:     .17311 elapsed seconds
Timing for main: time 2016-02-05_12:34:00 on domain   2:    1.40017 elapsed seconds
Timing for main: time 2016-02-05_12:34:00 on domain   1:    4.51749 elapsed seconds
Timing for main: time 2016-02-05_12:34:13 on domain   3:     .16053 elapsed seconds
Timing for main: time 2016-02-05_12:34:26 on domain   3:     .14630 elapsed seconds
Timing for main: time 2016-02-05_12:34:40 on domain   3:     .14620 elapsed seconds
Timing for main: time 2016-02-05_12:34:20 on domain   4:     .17847 elapsed seconds
Timing for main: time 2016-02-05_12:34:40 on domain   4:     .17321 elapsed seconds
Timing for main: time 2016-02-05_12:34:40 on domain   2:    1.40504 elapsed seconds
Timing for main: time 2016-02-05_12:34:53 on domain   3:     .15792 elapsed seconds
Timing for main: time 2016-02-05_12:35:06 on domain   3:     .14629 elapsed seconds
Timing for main: time 2016-02-05_12:35:20 on domain   3:     .14987 elapsed seconds
Timing for main: time 2016-02-05_12:35:00 on domain   4:     .18608 elapsed seconds
Timing for main: time 2016-02-05_12:35:20 on domain   4:     .17179 elapsed seconds
Timing for main: time 2016-02-05_12:35:20 on domain   2:    1.40655 elapsed seconds
Timing for main: time 2016-02-05_12:35:33 on domain   3:     .15796 elapsed seconds
Timing for main: time 2016-02-05_12:35:46 on domain   3:     .15272 elapsed seconds
Timing for main: time 2016-02-05_12:36:00 on domain   3:     .14655 elapsed seconds
Timing for main: time 2016-02-05_12:35:40 on domain   4:     .18379 elapsed seconds
Timing for main: time 2016-02-05_12:36:00 on domain   4:     .17284 elapsed seconds
Timing for main: time 2016-02-05_12:36:00 on domain   2:    1.40950 elapsed seconds
Timing for main: time 2016-02-05_12:36:00 on domain   1:    4.54004 elapsed seconds
Timing for main: time 2016-02-05_12:36:13 on domain   3:     .15851 elapsed seconds
Timing for main: time 2016-02-05_12:36:26 on domain   3:     .14676 elapsed seconds
Timing for main: time 2016-02-05_12:36:40 on domain   3:     .14632 elapsed seconds
Timing for main: time 2016-02-05_12:36:20 on domain   4:     .17927 elapsed seconds
Timing for main: time 2016-02-05_12:36:40 on domain   4:     .17308 elapsed seconds
Timing for main: time 2016-02-05_12:36:40 on domain   2:    1.40715 elapsed seconds
Timing for main: time 2016-02-05_12:36:53 on domain   3:     .15757 elapsed seconds
Timing for main: time 2016-02-05_12:37:06 on domain   3:     .14637 elapsed seconds
Timing for main: time 2016-02-05_12:37:20 on domain   3:     .14657 elapsed seconds
Timing for main: time 2016-02-05_12:37:00 on domain   4:     .17806 elapsed seconds
Timing for main: time 2016-02-05_12:37:20 on domain   4:     .17614 elapsed seconds
Timing for main: time 2016-02-05_12:37:20 on domain   2:    1.40956 elapsed seconds
Timing for main: time 2016-02-05_12:37:33 on domain   3:     .15765 elapsed seconds
Timing for main: time 2016-02-05_12:37:46 on domain   3:     .14643 elapsed seconds
Timing for main: time 2016-02-05_12:38:00 on domain   3:     .14648 elapsed seconds
Timing for main: time 2016-02-05_12:37:40 on domain   4:     .17866 elapsed seconds
Timing for main: time 2016-02-05_12:38:00 on domain   4:     .17243 elapsed seconds
Timing for main: time 2016-02-05_12:38:00 on domain   2:    1.40768 elapsed seconds
Timing for main: time 2016-02-05_12:38:00 on domain   1:    4.53657 elapsed seconds
Timing for main: time 2016-02-05_12:38:13 on domain   3:     .15824 elapsed seconds
Timing for main: time 2016-02-05_12:38:26 on domain   3:     .14600 elapsed seconds
Timing for main: time 2016-02-05_12:38:40 on domain   3:     .14623 elapsed seconds
Timing for main: time 2016-02-05_12:38:20 on domain   4:     .17835 elapsed seconds
Timing for main: time 2016-02-05_12:38:40 on domain   4:     .17282 elapsed seconds
Timing for main: time 2016-02-05_12:38:40 on domain   2:    1.40241 elapsed seconds
Timing for main: time 2016-02-05_12:38:53 on domain   3:     .15942 elapsed seconds
Timing for main: time 2016-02-05_12:39:06 on domain   3:     .14617 elapsed seconds
Timing for main: time 2016-02-05_12:39:20 on domain   3:     .14651 elapsed seconds
Timing for main: time 2016-02-05_12:39:00 on domain   4:     .17878 elapsed seconds
Timing for main: time 2016-02-05_12:39:20 on domain   4:     .17294 elapsed seconds
Timing for main: time 2016-02-05_12:39:20 on domain   2:    1.39899 elapsed seconds
Timing for main: time 2016-02-05_12:39:33 on domain   3:     .15764 elapsed seconds
Timing for main: time 2016-02-05_12:39:46 on domain   3:     .14645 elapsed seconds
Timing for main: time 2016-02-05_12:40:00 on domain   3:     .14657 elapsed seconds
Timing for main: time 2016-02-05_12:39:40 on domain   4:     .18368 elapsed seconds
Timing for main: time 2016-02-05_12:40:00 on domain   4:     .18034 elapsed seconds
Timing for main: time 2016-02-05_12:40:00 on domain   2:    1.40992 elapsed seconds
Timing for main: time 2016-02-05_12:40:00 on domain   1:    4.52357 elapsed seconds
Timing for main: time 2016-02-05_12:40:13 on domain   3:     .17030 elapsed seconds
Timing for main: time 2016-02-05_12:40:26 on domain   3:     .14630 elapsed seconds
Timing for main: time 2016-02-05_12:40:40 on domain   3:     .14644 elapsed seconds
Timing for main: time 2016-02-05_12:40:20 on domain   4:     .17869 elapsed seconds
Timing for main: time 2016-02-05_12:40:40 on domain   4:     .17295 elapsed seconds
Timing for main: time 2016-02-05_12:40:40 on domain   2:    1.42970 elapsed seconds
Timing for main: time 2016-02-05_12:40:53 on domain   3:     .16516 elapsed seconds
Timing for main: time 2016-02-05_12:41:06 on domain   3:     .14922 elapsed seconds
Timing for main: time 2016-02-05_12:41:20 on domain   3:     .14741 elapsed seconds
Timing for main: time 2016-02-05_12:41:00 on domain   4:     .17865 elapsed seconds
Timing for main: time 2016-02-05_12:41:20 on domain   4:     .17311 elapsed seconds
Timing for main: time 2016-02-05_12:41:20 on domain   2:    1.40872 elapsed seconds
Timing for main: time 2016-02-05_12:41:33 on domain   3:     .15779 elapsed seconds
Timing for main: time 2016-02-05_12:41:46 on domain   3:     .14628 elapsed seconds
Timing for main: time 2016-02-05_12:42:00 on domain   3:     .14661 elapsed seconds
Timing for main: time 2016-02-05_12:41:40 on domain   4:     .17863 elapsed seconds
Timing for main: time 2016-02-05_12:42:00 on domain   4:     .17302 elapsed seconds
Timing for main: time 2016-02-05_12:42:00 on domain   2:    1.39732 elapsed seconds
Timing for main: time 2016-02-05_12:42:00 on domain   1:    4.55557 elapsed seconds
Timing for main: time 2016-02-05_12:42:13 on domain   3:     .15789 elapsed seconds
Timing for main: time 2016-02-05_12:42:26 on domain   3:     .14616 elapsed seconds
Timing for main: time 2016-02-05_12:42:40 on domain   3:     .14759 elapsed seconds
Timing for main: time 2016-02-05_12:42:20 on domain   4:     .17964 elapsed seconds
Timing for main: time 2016-02-05_12:42:40 on domain   4:     .20808 elapsed seconds
Timing for main: time 2016-02-05_12:42:40 on domain   2:    1.46126 elapsed seconds
Timing for main: time 2016-02-05_12:42:53 on domain   3:     .15753 elapsed seconds
Timing for main: time 2016-02-05_12:43:06 on domain   3:     .14636 elapsed seconds
Timing for main: time 2016-02-05_12:43:20 on domain   3:     .14637 elapsed seconds
Timing for main: time 2016-02-05_12:43:00 on domain   4:     .17848 elapsed seconds
Timing for main: time 2016-02-05_12:43:20 on domain   4:     .23431 elapsed seconds
Timing for main: time 2016-02-05_12:43:20 on domain   2:    1.49263 elapsed seconds
Timing for main: time 2016-02-05_12:43:33 on domain   3:     .15742 elapsed seconds
Timing for main: time 2016-02-05_12:43:46 on domain   3:     .14647 elapsed seconds
Timing for main: time 2016-02-05_12:44:00 on domain   3:     .14689 elapsed seconds
Timing for main: time 2016-02-05_12:43:40 on domain   4:     .17851 elapsed seconds
Timing for main: time 2016-02-05_12:44:00 on domain   4:     .17292 elapsed seconds
Timing for main: time 2016-02-05_12:44:00 on domain   2:    1.41271 elapsed seconds
Timing for main: time 2016-02-05_12:44:00 on domain   1:    4.67901 elapsed seconds
Timing for main: time 2016-02-05_12:44:13 on domain   3:     .16011 elapsed seconds
Timing for main: time 2016-02-05_12:44:26 on domain   3:     .14559 elapsed seconds
Timing for main: time 2016-02-05_12:44:40 on domain   3:     .14659 elapsed seconds
Timing for main: time 2016-02-05_12:44:20 on domain   4:     .17919 elapsed seconds
Timing for main: time 2016-02-05_12:44:40 on domain   4:     .17294 elapsed seconds
Timing for main: time 2016-02-05_12:44:40 on domain   2:    1.40541 elapsed seconds
Timing for main: time 2016-02-05_12:44:53 on domain   3:     .15769 elapsed seconds
Timing for main: time 2016-02-05_12:45:06 on domain   3:     .14637 elapsed seconds
Timing for main: time 2016-02-05_12:45:20 on domain   3:     .15088 elapsed seconds
Timing for main: time 2016-02-05_12:45:00 on domain   4:     .18595 elapsed seconds
Timing for main: time 2016-02-05_12:45:20 on domain   4:     .17454 elapsed seconds
Timing for main: time 2016-02-05_12:45:20 on domain   2:    1.41046 elapsed seconds
Timing for main: time 2016-02-05_12:45:33 on domain   3:     .15835 elapsed seconds
Timing for main: time 2016-02-05_12:45:46 on domain   3:     .14672 elapsed seconds
Timing for main: time 2016-02-05_12:46:00 on domain   3:     .15276 elapsed seconds
Timing for main: time 2016-02-05_12:45:40 on domain   4:     .17856 elapsed seconds
Timing for main: time 2016-02-05_12:46:00 on domain   4:     .17372 elapsed seconds
Timing for main: time 2016-02-05_12:46:00 on domain   2:    1.40519 elapsed seconds
Timing for main: time 2016-02-05_12:46:00 on domain   1:    4.53296 elapsed seconds
Timing for main: time 2016-02-05_12:46:13 on domain   3:     .15782 elapsed seconds
Timing for main: time 2016-02-05_12:46:26 on domain   3:     .14650 elapsed seconds
Timing for main: time 2016-02-05_12:46:40 on domain   3:     .14637 elapsed seconds
Timing for main: time 2016-02-05_12:46:20 on domain   4:     .17885 elapsed seconds
Timing for main: time 2016-02-05_12:46:40 on domain   4:     .17286 elapsed seconds
Timing for main: time 2016-02-05_12:46:40 on domain   2:    1.40307 elapsed seconds
Timing for main: time 2016-02-05_12:46:53 on domain   3:     .15760 elapsed seconds
Timing for main: time 2016-02-05_12:47:06 on domain   3:     .14859 elapsed seconds
Timing for main: time 2016-02-05_12:47:20 on domain   3:     .14669 elapsed seconds
Timing for main: time 2016-02-05_12:47:00 on domain   4:     .17860 elapsed seconds
Timing for main: time 2016-02-05_12:47:20 on domain   4:     .17310 elapsed seconds
Timing for main: time 2016-02-05_12:47:20 on domain   2:    1.39985 elapsed seconds
Timing for main: time 2016-02-05_12:47:33 on domain   3:     .15788 elapsed seconds
Timing for main: time 2016-02-05_12:47:46 on domain   3:     .14619 elapsed seconds
Timing for main: time 2016-02-05_12:48:00 on domain   3:     .14794 elapsed seconds
Timing for main: time 2016-02-05_12:47:40 on domain   4:     .17871 elapsed seconds
Timing for main: time 2016-02-05_12:48:00 on domain   4:     .17278 elapsed seconds
Timing for main: time 2016-02-05_12:48:00 on domain   2:    1.40775 elapsed seconds
Timing for main: time 2016-02-05_12:48:00 on domain   1:    4.53018 elapsed seconds
Timing for main: time 2016-02-05_12:48:13 on domain   3:     .15767 elapsed seconds
Timing for main: time 2016-02-05_12:48:26 on domain   3:     .14648 elapsed seconds
Timing for main: time 2016-02-05_12:48:40 on domain   3:     .14661 elapsed seconds
Timing for main: time 2016-02-05_12:48:20 on domain   4:     .17885 elapsed seconds
Timing for main: time 2016-02-05_12:48:40 on domain   4:     .17581 elapsed seconds
Timing for main: time 2016-02-05_12:48:40 on domain   2:    1.40829 elapsed seconds
Timing for main: time 2016-02-05_12:48:53 on domain   3:     .15803 elapsed seconds
Timing for main: time 2016-02-05_12:49:06 on domain   3:     .14640 elapsed seconds
Timing for main: time 2016-02-05_12:49:20 on domain   3:     .16009 elapsed seconds
Timing for main: time 2016-02-05_12:49:00 on domain   4:     .17889 elapsed seconds
Timing for main: time 2016-02-05_12:49:20 on domain   4:     .17455 elapsed seconds
Timing for main: time 2016-02-05_12:49:20 on domain   2:    1.41310 elapsed seconds
Timing for main: time 2016-02-05_12:49:33 on domain   3:     .15805 elapsed seconds
Timing for main: time 2016-02-05_12:49:46 on domain   3:     .14654 elapsed seconds
Timing for main: time 2016-02-05_12:50:00 on domain   3:     .14644 elapsed seconds
Timing for main: time 2016-02-05_12:49:40 on domain   4:     .17866 elapsed seconds
Timing for main: time 2016-02-05_12:50:00 on domain   4:     .18067 elapsed seconds
Timing for main: time 2016-02-05_12:50:00 on domain   2:    1.40570 elapsed seconds
Timing for main: time 2016-02-05_12:50:00 on domain   1:    4.53973 elapsed seconds
Timing for main: time 2016-02-05_12:50:13 on domain   3:     .15761 elapsed seconds
Timing for main: time 2016-02-05_12:50:26 on domain   3:     .14694 elapsed seconds
Timing for main: time 2016-02-05_12:50:40 on domain   3:     .16328 elapsed seconds
Timing for main: time 2016-02-05_12:50:20 on domain   4:     .17849 elapsed seconds
Timing for main: time 2016-02-05_12:50:40 on domain   4:     .17308 elapsed seconds
Timing for main: time 2016-02-05_12:50:40 on domain   2:    1.41679 elapsed seconds
Timing for main: time 2016-02-05_12:50:53 on domain   3:     .18003 elapsed seconds
Timing for main: time 2016-02-05_12:51:06 on domain   3:     .15235 elapsed seconds
Timing for main: time 2016-02-05_12:51:20 on domain   3:     .14659 elapsed seconds
Timing for main: time 2016-02-05_12:51:00 on domain   4:     .17980 elapsed seconds
Timing for main: time 2016-02-05_12:51:20 on domain   4:     .17314 elapsed seconds
Timing for main: time 2016-02-05_12:51:20 on domain   2:    1.42742 elapsed seconds
Timing for main: time 2016-02-05_12:51:33 on domain   3:     .15776 elapsed seconds
Timing for main: time 2016-02-05_12:51:46 on domain   3:     .14656 elapsed seconds
Timing for main: time 2016-02-05_12:52:00 on domain   3:     .14631 elapsed seconds
Timing for main: time 2016-02-05_12:51:40 on domain   4:     .17886 elapsed seconds
Timing for main: time 2016-02-05_12:52:00 on domain   4:     .17298 elapsed seconds
Timing for main: time 2016-02-05_12:52:00 on domain   2:    1.39868 elapsed seconds
Timing for main: time 2016-02-05_12:52:00 on domain   1:    4.55531 elapsed seconds
Timing for main: time 2016-02-05_12:52:13 on domain   3:     .15814 elapsed seconds
Timing for main: time 2016-02-05_12:52:26 on domain   3:     .14647 elapsed seconds
Timing for main: time 2016-02-05_12:52:40 on domain   3:     .14757 elapsed seconds
Timing for main: time 2016-02-05_12:52:20 on domain   4:     .17861 elapsed seconds
Timing for main: time 2016-02-05_12:52:40 on domain   4:     .17318 elapsed seconds
Timing for main: time 2016-02-05_12:52:40 on domain   2:    1.40461 elapsed seconds
Timing for main: time 2016-02-05_12:52:53 on domain   3:     .16251 elapsed seconds
Timing for main: time 2016-02-05_12:53:06 on domain   3:     .14650 elapsed seconds
Timing for main: time 2016-02-05_12:53:20 on domain   3:     .14929 elapsed seconds
Timing for main: time 2016-02-05_12:53:00 on domain   4:     .17885 elapsed seconds
Timing for main: time 2016-02-05_12:53:20 on domain   4:     .17299 elapsed seconds
Timing for main: time 2016-02-05_12:53:20 on domain   2:    1.41305 elapsed seconds
Timing for main: time 2016-02-05_12:53:33 on domain   3:     .15791 elapsed seconds
Timing for main: time 2016-02-05_12:53:46 on domain   3:     .14661 elapsed seconds
Timing for main: time 2016-02-05_12:54:00 on domain   3:     .14667 elapsed seconds
Timing for main: time 2016-02-05_12:53:40 on domain   4:     .17898 elapsed seconds
Timing for main: time 2016-02-05_12:54:00 on domain   4:     .17485 elapsed seconds
Timing for main: time 2016-02-05_12:54:00 on domain   2:    1.40070 elapsed seconds
Timing for main: time 2016-02-05_12:54:00 on domain   1:    4.53754 elapsed seconds
Timing for main: time 2016-02-05_12:54:13 on domain   3:     .16098 elapsed seconds
Timing for main: time 2016-02-05_12:54:26 on domain   3:     .14646 elapsed seconds
Timing for main: time 2016-02-05_12:54:40 on domain   3:     .14680 elapsed seconds
Timing for main: time 2016-02-05_12:54:20 on domain   4:     .17878 elapsed seconds
Timing for main: time 2016-02-05_12:54:40 on domain   4:     .17544 elapsed seconds
Timing for main: time 2016-02-05_12:54:40 on domain   2:    1.43155 elapsed seconds
Timing for main: time 2016-02-05_12:54:53 on domain   3:     .15822 elapsed seconds
Timing for main: time 2016-02-05_12:55:06 on domain   3:     .14627 elapsed seconds
Timing for main: time 2016-02-05_12:55:20 on domain   3:     .14657 elapsed seconds
Timing for main: time 2016-02-05_12:55:00 on domain   4:     .18633 elapsed seconds
Timing for main: time 2016-02-05_12:55:20 on domain   4:     .17623 elapsed seconds
Timing for main: time 2016-02-05_12:55:20 on domain   2:    1.40726 elapsed seconds
Timing for main: time 2016-02-05_12:55:33 on domain   3:     .15819 elapsed seconds
Timing for main: time 2016-02-05_12:55:46 on domain   3:     .14616 elapsed seconds
Timing for main: time 2016-02-05_12:56:00 on domain   3:     .14836 elapsed seconds
Timing for main: time 2016-02-05_12:55:40 on domain   4:     .18041 elapsed seconds
Timing for main: time 2016-02-05_12:56:00 on domain   4:     .17375 elapsed seconds
Timing for main: time 2016-02-05_12:56:00 on domain   2:    1.46216 elapsed seconds
Timing for main: time 2016-02-05_12:56:00 on domain   1:    4.61363 elapsed seconds
Timing for main: time 2016-02-05_12:56:13 on domain   3:     .16472 elapsed seconds
Timing for main: time 2016-02-05_12:56:26 on domain   3:     .14738 elapsed seconds
Timing for main: time 2016-02-05_12:56:40 on domain   3:     .14716 elapsed seconds
Timing for main: time 2016-02-05_12:56:20 on domain   4:     .17855 elapsed seconds
Timing for main: time 2016-02-05_12:56:40 on domain   4:     .17327 elapsed seconds
Timing for main: time 2016-02-05_12:56:40 on domain   2:    1.41286 elapsed seconds
Timing for main: time 2016-02-05_12:56:53 on domain   3:     .15894 elapsed seconds
Timing for main: time 2016-02-05_12:57:06 on domain   3:     .14641 elapsed seconds
Timing for main: time 2016-02-05_12:57:20 on domain   3:     .17930 elapsed seconds
Timing for main: time 2016-02-05_12:57:00 on domain   4:     .17895 elapsed seconds
Timing for main: time 2016-02-05_12:57:20 on domain   4:     .17306 elapsed seconds
Timing for main: time 2016-02-05_12:57:20 on domain   2:    1.44771 elapsed seconds
Timing for main: time 2016-02-05_12:57:33 on domain   3:     .15775 elapsed seconds
Timing for main: time 2016-02-05_12:57:46 on domain   3:     .14592 elapsed seconds
Timing for main: time 2016-02-05_12:58:00 on domain   3:     .14730 elapsed seconds
Timing for main: time 2016-02-05_12:57:40 on domain   4:     .17920 elapsed seconds
Timing for main: time 2016-02-05_12:58:00 on domain   4:     .17309 elapsed seconds
Timing for main: time 2016-02-05_12:58:00 on domain   2:    1.39870 elapsed seconds
Timing for main: time 2016-02-05_12:58:00 on domain   1:    4.57222 elapsed seconds
  photolysis_driver: called for domain  1
Timing for main: time 2016-02-05_12:58:13 on domain   3:     .15741 elapsed seconds
Timing for main: time 2016-02-05_12:58:26 on domain   3:     .14698 elapsed seconds
Timing for main: time 2016-02-05_12:58:40 on domain   3:     .14760 elapsed seconds
Timing for main: time 2016-02-05_12:58:20 on domain   4:     .17879 elapsed seconds
Timing for main: time 2016-02-05_12:58:40 on domain   4:     .17775 elapsed seconds
Timing for main: time 2016-02-05_12:58:40 on domain   2:    1.41747 elapsed seconds
Timing for main: time 2016-02-05_12:58:53 on domain   3:     .15485 elapsed seconds
Timing for main: time 2016-02-05_12:59:06 on domain   3:     .14654 elapsed seconds
Timing for main: time 2016-02-05_12:59:20 on domain   3:     .14684 elapsed seconds
Timing for main: time 2016-02-05_12:59:00 on domain   4:     .17894 elapsed seconds
Timing for main: time 2016-02-05_12:59:20 on domain   4:     .17292 elapsed seconds
Timing for main: time 2016-02-05_12:59:20 on domain   2:    1.40102 elapsed seconds
  photolysis_driver: called for domain  2
Timing for main: time 2016-02-05_12:59:33 on domain   3:     .15828 elapsed seconds
Timing for main: time 2016-02-05_12:59:46 on domain   3:     .14666 elapsed seconds
  photolysis_driver: called for domain  3
Timing for main: time 2016-02-05_13:00:00 on domain   3:     .84107 elapsed seconds
Timing for main: time 2016-02-05_12:59:40 on domain   4:     .17906 elapsed seconds
  photolysis_driver: called for domain  4
Timing for main: time 2016-02-05_13:00:00 on domain   4:     .99275 elapsed seconds
Timing for main: time 2016-02-05_13:00:00 on domain   2:    3.78268 elapsed seconds
Timing for main: time 2016-02-05_13:00:00 on domain   1:    7.42967 elapsed seconds
Timing for Writing wrfout_d01_2016-02-05_13:00:00 for domain        1:    1.56172 elapsed seconds
  HOURLY EMISSIONS UPDATE TIME     3600.0        .0
 mediation_integrate: med_read_wrf_chem_emissions: Read emissions for time 2016-02-05_13:00:00
 **WARNING** Time in input file not being checked **WARNING**
Timing for Writing wrfout_d02_2016-02-05_13:00:00 for domain        2:    2.12831 elapsed seconds
Timing for Writing wrfout_d03_2016-02-05_13:00:00 for domain        3:    2.17694 elapsed seconds
Timing for main: time 2016-02-05_13:00:13 on domain   3:    2.50027 elapsed seconds
Timing for main: time 2016-02-05_13:00:26 on domain   3:     .17691 elapsed seconds
Timing for main: time 2016-02-05_13:00:40 on domain   3:     .16869 elapsed seconds
Timing for Writing wrfout_d04_2016-02-05_13:00:00 for domain        4:    2.09601 elapsed seconds
Timing for main: time 2016-02-05_13:00:20 on domain   4:    2.47872 elapsed seconds
Timing for main: time 2016-02-05_13:00:40 on domain   4:     .20675 elapsed seconds
Timing for main: time 2016-02-05_13:00:40 on domain   2:    8.49325 elapsed seconds
Timing for main: time 2016-02-05_13:00:53 on domain   3:     .16374 elapsed seconds
Timing for main: time 2016-02-05_13:01:06 on domain   3:     .14646 elapsed seconds
Timing for main: time 2016-02-05_13:01:20 on domain   3:     .15300 elapsed seconds
Timing for main: time 2016-02-05_13:01:00 on domain   4:     .17844 elapsed seconds
Timing for main: time 2016-02-05_13:01:20 on domain   4:     .17408 elapsed seconds
Timing for main: time 2016-02-05_13:01:20 on domain   2:    1.43001 elapsed seconds
Timing for main: time 2016-02-05_13:01:33 on domain   3:     .15842 elapsed seconds
Timing for main: time 2016-02-05_13:01:46 on domain   3:     .14656 elapsed seconds
Timing for main: time 2016-02-05_13:02:00 on domain   3:     .14645 elapsed seconds
Timing for main: time 2016-02-05_13:01:40 on domain   4:     .17875 elapsed seconds
Timing for main: time 2016-02-05_13:02:00 on domain   4:     .17328 elapsed seconds
Timing for main: time 2016-02-05_13:02:00 on domain   2:    1.39911 elapsed seconds
Timing for main: time 2016-02-05_13:02:00 on domain   1:   13.65908 elapsed seconds
Timing for main: time 2016-02-05_13:02:13 on domain   3:     .15705 elapsed seconds
Timing for main: time 2016-02-05_13:02:26 on domain   3:     .14639 elapsed seconds
Timing for main: time 2016-02-05_13:02:40 on domain   3:     .14705 elapsed seconds
Timing for main: time 2016-02-05_13:02:20 on domain   4:     .18000 elapsed seconds
Timing for main: time 2016-02-05_13:02:40 on domain   4:     .17432 elapsed seconds
Timing for main: time 2016-02-05_13:02:40 on domain   2:    1.40677 elapsed seconds
Timing for main: time 2016-02-05_13:02:53 on domain   3:     .15756 elapsed seconds
Timing for main: time 2016-02-05_13:03:06 on domain   3:     .14646 elapsed seconds
Timing for main: time 2016-02-05_13:03:20 on domain   3:     .14705 elapsed seconds
Timing for main: time 2016-02-05_13:03:00 on domain   4:     .18192 elapsed seconds
Timing for main: time 2016-02-05_13:03:20 on domain   4:     .17272 elapsed seconds
Timing for main: time 2016-02-05_13:03:20 on domain   2:    1.40151 elapsed seconds
Timing for main: time 2016-02-05_13:03:33 on domain   3:     .15901 elapsed seconds
Timing for main: time 2016-02-05_13:03:46 on domain   3:     .15148 elapsed seconds
Timing for main: time 2016-02-05_13:04:00 on domain   3:     .14645 elapsed seconds
Timing for main: time 2016-02-05_13:03:40 on domain   4:     .18064 elapsed seconds
Timing for main: time 2016-02-05_13:04:00 on domain   4:     .17331 elapsed seconds
Timing for main: time 2016-02-05_13:04:00 on domain   2:    1.41407 elapsed seconds
Timing for main: time 2016-02-05_13:04:00 on domain   1:    4.53615 elapsed seconds
Timing for main: time 2016-02-05_13:04:13 on domain   3:     .15767 elapsed seconds
Timing for main: time 2016-02-05_13:04:26 on domain   3:     .14768 elapsed seconds
Timing for main: time 2016-02-05_13:04:40 on domain   3:     .14704 elapsed seconds
Timing for main: time 2016-02-05_13:04:20 on domain   4:     .17905 elapsed seconds
Timing for main: time 2016-02-05_13:04:40 on domain   4:     .17310 elapsed seconds
Timing for main: time 2016-02-05_13:04:40 on domain   2:    1.40599 elapsed seconds
Timing for main: time 2016-02-05_13:04:53 on domain   3:     .15757 elapsed seconds
Timing for main: time 2016-02-05_13:05:06 on domain   3:     .14652 elapsed seconds
Timing for main: time 2016-02-05_13:05:20 on domain   3:     .14678 elapsed seconds
Timing for main: time 2016-02-05_13:05:00 on domain   4:     .18659 elapsed seconds
Timing for main: time 2016-02-05_13:05:20 on domain   4:     .17342 elapsed seconds
Timing for main: time 2016-02-05_13:05:20 on domain   2:    1.40631 elapsed seconds
Timing for main: time 2016-02-05_13:05:33 on domain   3:     .15770 elapsed seconds
Timing for main: time 2016-02-05_13:05:46 on domain   3:     .14700 elapsed seconds
Timing for main: time 2016-02-05_13:06:00 on domain   3:     .20122 elapsed seconds
Timing for main: time 2016-02-05_13:05:40 on domain   4:     .17905 elapsed seconds
Timing for main: time 2016-02-05_13:06:00 on domain   4:     .17322 elapsed seconds
Timing for main: time 2016-02-05_13:06:00 on domain   2:    1.47718 elapsed seconds
Timing for main: time 2016-02-05_13:06:00 on domain   1:    4.60864 elapsed seconds
Timing for main: time 2016-02-05_13:06:13 on domain   3:     .15737 elapsed seconds
Timing for main: time 2016-02-05_13:06:26 on domain   3:     .15417 elapsed seconds
Timing for main: time 2016-02-05_13:06:40 on domain   3:     .14718 elapsed seconds
Timing for main: time 2016-02-05_13:06:20 on domain   4:     .17847 elapsed seconds
Timing for main: time 2016-02-05_13:06:40 on domain   4:     .17341 elapsed seconds
Timing for main: time 2016-02-05_13:06:40 on domain   2:    1.41174 elapsed seconds
Timing for main: time 2016-02-05_13:06:53 on domain   3:     .15727 elapsed seconds
Timing for main: time 2016-02-05_13:07:06 on domain   3:     .14667 elapsed seconds
Timing for main: time 2016-02-05_13:07:20 on domain   3:     .14960 elapsed seconds
Timing for main: time 2016-02-05_13:07:00 on domain   4:     .17879 elapsed seconds
Timing for main: time 2016-02-05_13:07:20 on domain   4:     .17331 elapsed seconds
Timing for main: time 2016-02-05_13:07:20 on domain   2:    1.40213 elapsed seconds
Timing for main: time 2016-02-05_13:07:33 on domain   3:     .15791 elapsed seconds
Timing for main: time 2016-02-05_13:07:46 on domain   3:     .14891 elapsed seconds
Timing for main: time 2016-02-05_13:08:00 on domain   3:     .14656 elapsed seconds
Timing for main: time 2016-02-05_13:07:40 on domain   4:     .17868 elapsed seconds
Timing for main: time 2016-02-05_13:08:00 on domain   4:     .17338 elapsed seconds
Timing for main: time 2016-02-05_13:08:00 on domain   2:    1.40095 elapsed seconds
Timing for main: time 2016-02-05_13:08:00 on domain   1:    4.52776 elapsed seconds
Timing for main: time 2016-02-05_13:08:13 on domain   3:     .15790 elapsed seconds
Timing for main: time 2016-02-05_13:08:26 on domain   3:     .14657 elapsed seconds
Timing for main: time 2016-02-05_13:08:40 on domain   3:     .14682 elapsed seconds
Timing for main: time 2016-02-05_13:08:20 on domain   4:     .17954 elapsed seconds
Timing for main: time 2016-02-05_13:08:40 on domain   4:     .17311 elapsed seconds
Timing for main: time 2016-02-05_13:08:40 on domain   2:    1.40572 elapsed seconds
Timing for main: time 2016-02-05_13:08:53 on domain   3:     .15767 elapsed seconds
Timing for main: time 2016-02-05_13:09:06 on domain   3:     .14698 elapsed seconds
Timing for main: time 2016-02-05_13:09:20 on domain   3:     .14628 elapsed seconds
Timing for main: time 2016-02-05_13:09:00 on domain   4:     .18018 elapsed seconds
Timing for main: time 2016-02-05_13:09:20 on domain   4:     .17821 elapsed seconds
Timing for main: time 2016-02-05_13:09:20 on domain   2:    1.41353 elapsed seconds
Timing for main: time 2016-02-05_13:09:33 on domain   3:     .15759 elapsed seconds
Timing for main: time 2016-02-05_13:09:46 on domain   3:     .14652 elapsed seconds
Timing for main: time 2016-02-05_13:10:00 on domain   3:     .14876 elapsed seconds
Timing for main: time 2016-02-05_13:09:40 on domain   4:     .17840 elapsed seconds
Timing for main: time 2016-02-05_13:10:00 on domain   4:     .18064 elapsed seconds
Timing for main: time 2016-02-05_13:10:00 on domain   2:    1.48230 elapsed seconds
Timing for main: time 2016-02-05_13:10:00 on domain   1:    4.61372 elapsed seconds
Timing for main: time 2016-02-05_13:10:13 on domain   3:     .16011 elapsed seconds
Timing for main: time 2016-02-05_13:10:26 on domain   3:     .14767 elapsed seconds
Timing for main: time 2016-02-05_13:10:40 on domain   3:     .14639 elapsed seconds
Timing for main: time 2016-02-05_13:10:20 on domain   4:     .17863 elapsed seconds
Timing for main: time 2016-02-05_13:10:40 on domain   4:     .17319 elapsed seconds
Timing for main: time 2016-02-05_13:10:40 on domain   2:    1.40737 elapsed seconds
Timing for main: time 2016-02-05_13:10:53 on domain   3:     .15767 elapsed seconds
Timing for main: time 2016-02-05_13:11:06 on domain   3:     .14654 elapsed seconds
Timing for main: time 2016-02-05_13:11:20 on domain   3:     .14652 elapsed seconds
Timing for main: time 2016-02-05_13:11:00 on domain   4:     .17850 elapsed seconds
Timing for main: time 2016-02-05_13:11:20 on domain   4:     .17320 elapsed seconds
Timing for main: time 2016-02-05_13:11:20 on domain   2:    1.39861 elapsed seconds
Timing for main: time 2016-02-05_13:11:33 on domain   3:     .17648 elapsed seconds
Timing for main: time 2016-02-05_13:11:46 on domain   3:     .14465 elapsed seconds
Timing for main: time 2016-02-05_13:12:00 on domain   3:     .14659 elapsed seconds
Timing for main: time 2016-02-05_13:11:40 on domain   4:     .17946 elapsed seconds
Timing for main: time 2016-02-05_13:12:00 on domain   4:     .17301 elapsed seconds
Timing for main: time 2016-02-05_13:12:00 on domain   2:    1.41621 elapsed seconds
Timing for main: time 2016-02-05_13:12:00 on domain   1:    4.54098 elapsed seconds
Timing for main: time 2016-02-05_13:12:13 on domain   3:     .15766 elapsed seconds
Timing for main: time 2016-02-05_13:12:26 on domain   3:     .14651 elapsed seconds
Timing for main: time 2016-02-05_13:12:40 on domain   3:     .14648 elapsed seconds
Timing for main: time 2016-02-05_13:12:20 on domain   4:     .17860 elapsed seconds
Timing for main: time 2016-02-05_13:12:40 on domain   4:     .17337 elapsed seconds
Timing for main: time 2016-02-05_13:12:40 on domain   2:    1.40380 elapsed seconds
Timing for main: time 2016-02-05_13:12:53 on domain   3:     .15787 elapsed seconds
Timing for main: time 2016-02-05_13:13:06 on domain   3:     .14617 elapsed seconds
Timing for main: time 2016-02-05_13:13:20 on domain   3:     .14669 elapsed seconds
Timing for main: time 2016-02-05_13:13:00 on domain   4:     .17851 elapsed seconds
Timing for main: time 2016-02-05_13:13:20 on domain   4:     .17326 elapsed seconds
Timing for main: time 2016-02-05_13:13:20 on domain   2:    1.39867 elapsed seconds
Timing for main: time 2016-02-05_13:13:33 on domain   3:     .15913 elapsed seconds
Timing for main: time 2016-02-05_13:13:46 on domain   3:     .14750 elapsed seconds
Timing for main: time 2016-02-05_13:14:00 on domain   3:     .14634 elapsed seconds
Timing for main: time 2016-02-05_13:13:40 on domain   4:     .17876 elapsed seconds
Timing for main: time 2016-02-05_13:14:00 on domain   4:     .17280 elapsed seconds
Timing for main: time 2016-02-05_13:14:00 on domain   2:    1.40068 elapsed seconds
Timing for main: time 2016-02-05_13:14:00 on domain   1:    4.51832 elapsed seconds
Timing for main: time 2016-02-05_13:14:13 on domain   3:     .15768 elapsed seconds
Timing for main: time 2016-02-05_13:14:26 on domain   3:     .14630 elapsed seconds
Timing for main: time 2016-02-05_13:14:40 on domain   3:     .14696 elapsed seconds
Timing for main: time 2016-02-05_13:14:20 on domain   4:     .17838 elapsed seconds
Timing for main: time 2016-02-05_13:14:40 on domain   4:     .17302 elapsed seconds
Timing for main: time 2016-02-05_13:14:40 on domain   2:    1.41113 elapsed seconds
Timing for main: time 2016-02-05_13:14:53 on domain   3:     .15777 elapsed seconds
Timing for main: time 2016-02-05_13:15:06 on domain   3:     .15211 elapsed seconds
Timing for main: time 2016-02-05_13:15:20 on domain   3:     .14650 elapsed seconds
Timing for main: time 2016-02-05_13:15:00 on domain   4:     .18703 elapsed seconds
Timing for main: time 2016-02-05_13:15:20 on domain   4:     .17263 elapsed seconds
Timing for main: time 2016-02-05_13:15:20 on domain   2:    1.41199 elapsed seconds
Timing for main: time 2016-02-05_13:15:33 on domain   3:     .15811 elapsed seconds
Timing for main: time 2016-02-05_13:15:46 on domain   3:     .14648 elapsed seconds
Timing for main: time 2016-02-05_13:16:00 on domain   3:     .14657 elapsed seconds
Timing for main: time 2016-02-05_13:15:40 on domain   4:     .17686 elapsed seconds
Timing for main: time 2016-02-05_13:16:00 on domain   4:     .17309 elapsed seconds
Timing for main: time 2016-02-05_13:16:00 on domain   2:    1.39883 elapsed seconds
Timing for main: time 2016-02-05_13:16:00 on domain   1:    4.53813 elapsed seconds
Timing for main: time 2016-02-05_13:16:13 on domain   3:     .15780 elapsed seconds
Timing for main: time 2016-02-05_13:16:26 on domain   3:     .14875 elapsed seconds
Timing for main: time 2016-02-05_13:16:40 on domain   3:     .15251 elapsed seconds
Timing for main: time 2016-02-05_13:16:20 on domain   4:     .17785 elapsed seconds
Timing for main: time 2016-02-05_13:16:40 on domain   4:     .17298 elapsed seconds
Timing for main: time 2016-02-05_13:16:40 on domain   2:    1.41924 elapsed seconds
Timing for main: time 2016-02-05_13:16:53 on domain   3:     .15852 elapsed seconds
Timing for main: time 2016-02-05_13:17:06 on domain   3:     .14716 elapsed seconds
Timing for main: time 2016-02-05_13:17:20 on domain   3:     .14693 elapsed seconds
Timing for main: time 2016-02-05_13:17:00 on domain   4:     .17861 elapsed seconds
Timing for main: time 2016-02-05_13:17:20 on domain   4:     .17356 elapsed seconds
Timing for main: time 2016-02-05_13:17:20 on domain   2:    1.40045 elapsed seconds
Timing for main: time 2016-02-05_13:17:33 on domain   3:     .15853 elapsed seconds
[...]
Timing for main: time 2016-02-05_17:36:00 on domain   2:    1.41287 elapsed seconds
Timing for main: time 2016-02-05_17:36:00 on domain   1:    4.62844 elapsed seconds
Timing for main: time 2016-02-05_17:36:13 on domain   3:     .18046 elapsed seconds
Timing for main: time 2016-02-05_17:36:26 on domain   3:     .15749 elapsed seconds
Timing for main: time 2016-02-05_17:36:40 on domain   3:     .14743 elapsed seconds
Timing for main: time 2016-02-05_17:36:20 on domain   4:     .17979 elapsed seconds
Timing for main: time 2016-02-05_17:36:40 on domain   4:     .17261 elapsed seconds
Timing for main: time 2016-02-05_17:36:40 on domain   2:    1.44410 elapsed seconds
Timing for main: time 2016-02-05_17:36:53 on domain   3:     .15963 elapsed seconds
Timing for main: time 2016-02-05_17:37:06 on domain   3:     .14692 elapsed seconds
Timing for main: time 2016-02-05_17:37:20 on domain   3:     .15321 elapsed seconds
Timing for main: time 2016-02-05_17:37:00 on domain   4:     .18023 elapsed seconds
Timing for main: time 2016-02-05_17:37:20 on domain   4:     .17247 elapsed seconds
Timing for main: time 2016-02-05_17:37:20 on domain   2:    1.41009 elapsed seconds
Timing for main: time 2016-02-05_17:37:33 on domain   3:     .16012 elapsed seconds
Timing for main: time 2016-02-05_17:37:46 on domain   3:     .14694 elapsed seconds
Timing for main: time 2016-02-05_17:38:00 on domain   3:     .14747 elapsed seconds
Timing for main: time 2016-02-05_17:37:40 on domain   4:     .17867 elapsed seconds
Timing for main: time 2016-02-05_17:38:00 on domain   4:     .17262 elapsed seconds
Timing for main: time 2016-02-05_17:38:00 on domain   2:    1.40237 elapsed seconds
Timing for main: time 2016-02-05_17:38:00 on domain   1:    4.57135 elapsed seconds
Timing for main: time 2016-02-05_17:38:13 on domain   3:     .15944 elapsed seconds
Timing for main: time 2016-02-05_17:38:26 on domain   3:     .14694 elapsed seconds
Timing for main: time 2016-02-05_17:38:40 on domain   3:     .14705 elapsed seconds
Timing for main: time 2016-02-05_17:38:20 on domain   4:     .17861 elapsed seconds
Timing for main: time 2016-02-05_17:38:40 on domain   4:     .17245 elapsed seconds
Timing for main: time 2016-02-05_17:38:40 on domain   2:    1.40677 elapsed seconds
Timing for main: time 2016-02-05_17:38:53 on domain   3:     .16198 elapsed seconds
Timing for main: time 2016-02-05_17:39:06 on domain   3:     .14663 elapsed seconds
Timing for main: time 2016-02-05_17:39:20 on domain   3:     .14705 elapsed seconds
Timing for main: time 2016-02-05_17:39:00 on domain   4:     .17864 elapsed seconds
Timing for main: time 2016-02-05_17:39:20 on domain   4:     .17259 elapsed seconds
Timing for main: time 2016-02-05_17:39:20 on domain   2:    1.40485 elapsed seconds
Timing for main: time 2016-02-05_17:39:33 on domain   3:     .16208 elapsed seconds
Timing for main: time 2016-02-05_17:39:46 on domain   3:     .14698 elapsed seconds
Timing for main: time 2016-02-05_17:40:00 on domain   3:     .14694 elapsed seconds
Timing for main: time 2016-02-05_17:39:40 on domain   4:     .17856 elapsed seconds
Timing for main: time 2016-02-05_17:40:00 on domain   4:     .18078 elapsed seconds
Timing for main: time 2016-02-05_17:40:00 on domain   2:    1.41517 elapsed seconds
Timing for main: time 2016-02-05_17:40:00 on domain   1:    4.54057 elapsed seconds
Timing for main: time 2016-02-05_17:40:13 on domain   3:     .16119 elapsed seconds
Timing for main: time 2016-02-05_17:40:26 on domain   3:     .14762 elapsed seconds
Timing for main: time 2016-02-05_17:40:40 on domain   3:     .14737 elapsed seconds
Timing for main: time 2016-02-05_17:40:20 on domain   4:     .17881 elapsed seconds
Timing for main: time 2016-02-05_17:40:40 on domain   4:     .17350 elapsed seconds
Timing for main: time 2016-02-05_17:40:40 on domain   2:    1.41151 elapsed seconds
Timing for main: time 2016-02-05_17:40:53 on domain   3:     .15909 elapsed seconds
Timing for main: time 2016-02-05_17:41:06 on domain   3:     .14706 elapsed seconds
Timing for main: time 2016-02-05_17:41:20 on domain   3:     .14828 elapsed seconds
Timing for main: time 2016-02-05_17:41:00 on domain   4:     .17849 elapsed seconds
Timing for main: time 2016-02-05_17:41:20 on domain   4:     .17262 elapsed seconds
Timing for main: time 2016-02-05_17:41:20 on domain   2:    1.41296 elapsed seconds
Timing for main: time 2016-02-05_17:41:33 on domain   3:     .15932 elapsed seconds
Timing for main: time 2016-02-05_17:41:46 on domain   3:     .14671 elapsed seconds
Timing for main: time 2016-02-05_17:42:00 on domain   3:     .14746 elapsed seconds
Timing for main: time 2016-02-05_17:41:40 on domain   4:     .17852 elapsed seconds
Timing for main: time 2016-02-05_17:42:00 on domain   4:     .17223 elapsed seconds
Timing for main: time 2016-02-05_17:42:00 on domain   2:    1.40194 elapsed seconds
Timing for main: time 2016-02-05_17:42:00 on domain   1:    4.54665 elapsed seconds
Timing for main: time 2016-02-05_17:42:13 on domain   3:     .16007 elapsed seconds
Timing for main: time 2016-02-05_17:42:26 on domain   3:     .15509 elapsed seconds
Timing for main: time 2016-02-05_17:42:40 on domain   3:     .14700 elapsed seconds
Timing for main: time 2016-02-05_17:42:20 on domain   4:     .17886 elapsed seconds
Timing for main: time 2016-02-05_17:42:40 on domain   4:     .17316 elapsed seconds
Timing for main: time 2016-02-05_17:42:40 on domain   2:    1.41637 elapsed seconds
Timing for main: time 2016-02-05_17:42:53 on domain   3:     .15933 elapsed seconds
Timing for main: time 2016-02-05_17:43:06 on domain   3:     .14719 elapsed seconds
Timing for main: time 2016-02-05_17:43:20 on domain   3:     .14992 elapsed seconds
Timing for main: time 2016-02-05_17:43:00 on domain   4:     .17877 elapsed seconds
Timing for main: time 2016-02-05_17:43:20 on domain   4:     .17265 elapsed seconds
Timing for main: time 2016-02-05_17:43:20 on domain   2:    1.40758 elapsed seconds
Timing for main: time 2016-02-05_17:43:33 on domain   3:     .15929 elapsed seconds
Timing for main: time 2016-02-05_17:43:46 on domain   3:     .14730 elapsed seconds
Timing for main: time 2016-02-05_17:44:00 on domain   3:     .14988 elapsed seconds
Timing for main: time 2016-02-05_17:43:40 on domain   4:     .17865 elapsed seconds
Timing for main: time 2016-02-05_17:44:00 on domain   4:     .17234 elapsed seconds
Timing for main: time 2016-02-05_17:44:00 on domain   2:    1.40496 elapsed seconds
Timing for main: time 2016-02-05_17:44:00 on domain   1:    4.54242 elapsed seconds
Timing for main: time 2016-02-05_17:44:13 on domain   3:     .15973 elapsed seconds
Timing for main: time 2016-02-05_17:44:26 on domain   3:     .14729 elapsed seconds
Timing for main: time 2016-02-05_17:44:40 on domain   3:     .14806 elapsed seconds
Timing for main: time 2016-02-05_17:44:20 on domain   4:     .17850 elapsed seconds
Timing for main: time 2016-02-05_17:44:40 on domain   4:     .17194 elapsed seconds
Timing for main: time 2016-02-05_17:44:40 on domain   2:    1.40660 elapsed seconds
Timing for main: time 2016-02-05_17:44:53 on domain   3:     .15940 elapsed seconds
Timing for main: time 2016-02-05_17:45:06 on domain   3:     .14656 elapsed seconds
Timing for main: time 2016-02-05_17:45:20 on domain   3:     .14770 elapsed seconds
Timing for main: time 2016-02-05_17:45:00 on domain   4:     .18628 elapsed seconds
Timing for main: time 2016-02-05_17:45:20 on domain   4:     .17233 elapsed seconds
Timing for main: time 2016-02-05_17:45:20 on domain   2:    1.41115 elapsed seconds
Timing for main: time 2016-02-05_17:45:33 on domain   3:     .16121 elapsed seconds
Timing for main: time 2016-02-05_17:45:46 on domain   3:     .16331 elapsed seconds
Timing for main: time 2016-02-05_17:46:00 on domain   3:     .20831 elapsed seconds
Timing for main: time 2016-02-05_17:45:40 on domain   4:     .17845 elapsed seconds
Timing for main: time 2016-02-05_17:46:00 on domain   4:     .17277 elapsed seconds
Timing for main: time 2016-02-05_17:46:00 on domain   2:    1.48794 elapsed seconds
Timing for main: time 2016-02-05_17:46:00 on domain   1:    4.61967 elapsed seconds
Timing for main: time 2016-02-05_17:46:13 on domain   3:     .15966 elapsed seconds
Timing for main: time 2016-02-05_17:46:26 on domain   3:     .14675 elapsed seconds
Timing for main: time 2016-02-05_17:46:40 on domain   3:     .14684 elapsed seconds
Timing for main: time 2016-02-05_17:46:20 on domain   4:     .18674 elapsed seconds
Timing for main: time 2016-02-05_17:46:40 on domain   4:     .17193 elapsed seconds
Timing for main: time 2016-02-05_17:46:40 on domain   2:    1.42251 elapsed seconds
Timing for main: time 2016-02-05_17:46:53 on domain   3:     .16022 elapsed seconds
Timing for main: time 2016-02-05_17:47:06 on domain   3:     .14678 elapsed seconds
Timing for main: time 2016-02-05_17:47:20 on domain   3:     .14709 elapsed seconds
Timing for main: time 2016-02-05_17:47:00 on domain   4:     .17858 elapsed seconds
Timing for main: time 2016-02-05_17:47:20 on domain   4:     .17245 elapsed seconds
Timing for main: time 2016-02-05_17:47:20 on domain   2:    1.40287 elapsed seconds
Timing for main: time 2016-02-05_17:47:33 on domain   3:     .16729 elapsed seconds
Timing for main: time 2016-02-05_17:47:46 on domain   3:     .14992 elapsed seconds
Timing for main: time 2016-02-05_17:48:00 on domain   3:     .14867 elapsed seconds
Timing for main: time 2016-02-05_17:47:40 on domain   4:     .17841 elapsed seconds
Timing for main: time 2016-02-05_17:48:00 on domain   4:     .17235 elapsed seconds
Timing for main: time 2016-02-05_17:48:00 on domain   2:    1.41282 elapsed seconds
Timing for main: time 2016-02-05_17:48:00 on domain   1:    4.55764 elapsed seconds
Timing for main: time 2016-02-05_17:48:13 on domain   3:     .15950 elapsed seconds
Timing for main: time 2016-02-05_17:48:26 on domain   3:     .14688 elapsed seconds
Timing for main: time 2016-02-05_17:48:40 on domain   3:     .14705 elapsed seconds
Timing for main: time 2016-02-05_17:48:20 on domain   4:     .17849 elapsed seconds
Timing for main: time 2016-02-05_17:48:40 on domain   4:     .17261 elapsed seconds
Timing for main: time 2016-02-05_17:48:40 on domain   2:    1.40781 elapsed seconds
Timing for main: time 2016-02-05_17:48:53 on domain   3:     .16019 elapsed seconds
Timing for main: time 2016-02-05_17:49:06 on domain   3:     .14717 elapsed seconds
Timing for main: time 2016-02-05_17:49:20 on domain   3:     .14708 elapsed seconds
Timing for main: time 2016-02-05_17:49:00 on domain   4:     .17896 elapsed seconds
Timing for main: time 2016-02-05_17:49:20 on domain   4:     .19262 elapsed seconds
Timing for main: time 2016-02-05_17:49:20 on domain   2:    1.42349 elapsed seconds
Timing for main: time 2016-02-05_17:49:33 on domain   3:     .15955 elapsed seconds
Timing for main: time 2016-02-05_17:49:46 on domain   3:     .14681 elapsed seconds
Timing for main: time 2016-02-05_17:50:00 on domain   3:     .14699 elapsed seconds
Timing for main: time 2016-02-05_17:49:40 on domain   4:     .17881 elapsed seconds
Timing for main: time 2016-02-05_17:50:00 on domain   4:     .17988 elapsed seconds
Timing for main: time 2016-02-05_17:50:00 on domain   2:    1.47019 elapsed seconds
Timing for main: time 2016-02-05_17:50:00 on domain   1:    4.61493 elapsed seconds
Timing for main: time 2016-02-05_17:50:13 on domain   3:     .15956 elapsed seconds
Timing for main: time 2016-02-05_17:50:26 on domain   3:     .16002 elapsed seconds
Timing for main: time 2016-02-05_17:50:40 on domain   3:     .14827 elapsed seconds
Timing for main: time 2016-02-05_17:50:20 on domain   4:     .22503 elapsed seconds
Timing for main: time 2016-02-05_17:50:40 on domain   4:     .20018 elapsed seconds
Timing for main: time 2016-02-05_17:50:40 on domain   2:    1.49540 elapsed seconds
Timing for main: time 2016-02-05_17:50:53 on domain   3:     .15941 elapsed seconds
Timing for main: time 2016-02-05_17:51:06 on domain   3:     .14662 elapsed seconds
Timing for main: time 2016-02-05_17:51:20 on domain   3:     .14774 elapsed seconds
Timing for main: time 2016-02-05_17:51:00 on domain   4:     .17872 elapsed seconds
Timing for main: time 2016-02-05_17:51:20 on domain   4:     .17241 elapsed seconds
Timing for main: time 2016-02-05_17:51:20 on domain   2:    1.40066 elapsed seconds
Timing for main: time 2016-02-05_17:51:33 on domain   3:     .16092 elapsed seconds
Timing for main: time 2016-02-05_17:51:46 on domain   3:     .14863 elapsed seconds
Timing for main: time 2016-02-05_17:52:00 on domain   3:     .14674 elapsed seconds
Timing for main: time 2016-02-05_17:51:40 on domain   4:     .17821 elapsed seconds
Timing for main: time 2016-02-05_17:52:00 on domain   4:     .17226 elapsed seconds
Timing for main: time 2016-02-05_17:52:00 on domain   2:    1.41339 elapsed seconds
Timing for main: time 2016-02-05_17:52:00 on domain   1:    4.62323 elapsed seconds
Timing for main: time 2016-02-05_17:52:13 on domain   3:     .15953 elapsed seconds
Timing for main: time 2016-02-05_17:52:26 on domain   3:     .14702 elapsed seconds
Timing for main: time 2016-02-05_17:52:40 on domain   3:     .15756 elapsed seconds
Timing for main: time 2016-02-05_17:52:20 on domain   4:     .17850 elapsed seconds
Timing for main: time 2016-02-05_17:52:40 on domain   4:     .17380 elapsed seconds
Timing for main: time 2016-02-05_17:52:40 on domain   2:    1.42032 elapsed seconds
Timing for main: time 2016-02-05_17:52:53 on domain   3:     .15944 elapsed seconds
Timing for main: time 2016-02-05_17:53:06 on domain   3:     .14654 elapsed seconds
Timing for main: time 2016-02-05_17:53:20 on domain   3:     .14687 elapsed seconds
Timing for main: time 2016-02-05_17:53:00 on domain   4:     .17825 elapsed seconds
Timing for main: time 2016-02-05_17:53:20 on domain   4:     .17238 elapsed seconds
Timing for main: time 2016-02-05_17:53:20 on domain   2:    1.40120 elapsed seconds
Timing for main: time 2016-02-05_17:53:33 on domain   3:     .15882 elapsed seconds
Timing for main: time 2016-02-05_17:53:46 on domain   3:     .14892 elapsed seconds
Timing for main: time 2016-02-05_17:54:00 on domain   3:     .14690 elapsed seconds
Timing for main: time 2016-02-05_17:53:40 on domain   4:     .17838 elapsed seconds
Timing for main: time 2016-02-05_17:54:00 on domain   4:     .17307 elapsed seconds
Timing for main: time 2016-02-05_17:54:00 on domain   2:    1.40457 elapsed seconds
Timing for main: time 2016-02-05_17:54:00 on domain   1:    4.54527 elapsed seconds
Timing for main: time 2016-02-05_17:54:13 on domain   3:     .16006 elapsed seconds
Timing for main: time 2016-02-05_17:54:26 on domain   3:     .14753 elapsed seconds
Timing for main: time 2016-02-05_17:54:40 on domain   3:     .14715 elapsed seconds
Timing for main: time 2016-02-05_17:54:20 on domain   4:     .17842 elapsed seconds
Timing for main: time 2016-02-05_17:54:40 on domain   4:     .17283 elapsed seconds
Timing for main: time 2016-02-05_17:54:40 on domain   2:    1.40819 elapsed seconds
Timing for main: time 2016-02-05_17:54:53 on domain   3:     .16601 elapsed seconds
Timing for main: time 2016-02-05_17:55:06 on domain   3:     .14661 elapsed seconds
Timing for main: time 2016-02-05_17:55:20 on domain   3:     .14671 elapsed seconds
Timing for main: time 2016-02-05_17:55:00 on domain   4:     .18746 elapsed seconds
Timing for main: time 2016-02-05_17:55:20 on domain   4:     .17436 elapsed seconds
Timing for main: time 2016-02-05_17:55:20 on domain   2:    1.41891 elapsed seconds
Timing for main: time 2016-02-05_17:55:33 on domain   3:     .20623 elapsed seconds
Timing for main: time 2016-02-05_17:55:46 on domain   3:     .20142 elapsed seconds
Timing for main: time 2016-02-05_17:56:00 on domain   3:     .17077 elapsed seconds
Timing for main: time 2016-02-05_17:55:40 on domain   4:     .17818 elapsed seconds
Timing for main: time 2016-02-05_17:56:00 on domain   4:     .17207 elapsed seconds
Timing for main: time 2016-02-05_17:56:00 on domain   2:    1.52761 elapsed seconds
Timing for main: time 2016-02-05_17:56:00 on domain   1:    4.66928 elapsed seconds
Timing for main: time 2016-02-05_17:56:13 on domain   3:     .16120 elapsed seconds
Timing for main: time 2016-02-05_17:56:26 on domain   3:     .14862 elapsed seconds
Timing for main: time 2016-02-05_17:56:40 on domain   3:     .14762 elapsed seconds
Timing for main: time 2016-02-05_17:56:20 on domain   4:     .17856 elapsed seconds
Timing for main: time 2016-02-05_17:56:40 on domain   4:     .17404 elapsed seconds
Timing for main: time 2016-02-05_17:56:40 on domain   2:    1.41234 elapsed seconds
Timing for main: time 2016-02-05_17:56:53 on domain   3:     .15894 elapsed seconds
Timing for main: time 2016-02-05_17:57:06 on domain   3:     .14727 elapsed seconds
Timing for main: time 2016-02-05_17:57:20 on domain   3:     .14732 elapsed seconds
Timing for main: time 2016-02-05_17:57:00 on domain   4:     .17848 elapsed seconds
Timing for main: time 2016-02-05_17:57:20 on domain   4:     .17189 elapsed seconds
Timing for main: time 2016-02-05_17:57:20 on domain   2:    1.40810 elapsed seconds
Timing for main: time 2016-02-05_17:57:33 on domain   3:     .15955 elapsed seconds
Timing for main: time 2016-02-05_17:57:46 on domain   3:     .15969 elapsed seconds
Timing for main: time 2016-02-05_17:58:00 on domain   3:     .14697 elapsed seconds
Timing for main: time 2016-02-05_17:57:40 on domain   4:     .17884 elapsed seconds
Timing for main: time 2016-02-05_17:58:00 on domain   4:     .17788 elapsed seconds
Timing for main: time 2016-02-05_17:58:00 on domain   2:    1.41988 elapsed seconds
Timing for main: time 2016-02-05_17:58:00 on domain   1:    4.55339 elapsed seconds
  photolysis_driver: called for domain  1
Timing for main: time 2016-02-05_17:58:13 on domain   3:     .15937 elapsed seconds
Timing for main: time 2016-02-05_17:58:26 on domain   3:     .14765 elapsed seconds
Timing for main: time 2016-02-05_17:58:40 on domain   3:     .15145 elapsed seconds
Timing for main: time 2016-02-05_17:58:20 on domain   4:     .17822 elapsed seconds
Timing for main: time 2016-02-05_17:58:40 on domain   4:     .17213 elapsed seconds
Timing for main: time 2016-02-05_17:58:40 on domain   2:    1.41160 elapsed seconds
Timing for main: time 2016-02-05_17:58:53 on domain   3:     .16070 elapsed seconds
Timing for main: time 2016-02-05_17:59:06 on domain   3:     .15850 elapsed seconds
Timing for main: time 2016-02-05_17:59:20 on domain   3:     .14677 elapsed seconds
Timing for main: time 2016-02-05_17:59:00 on domain   4:     .17802 elapsed seconds
Timing for main: time 2016-02-05_17:59:20 on domain   4:     .17237 elapsed seconds
Timing for main: time 2016-02-05_17:59:20 on domain   2:    1.41372 elapsed seconds
  photolysis_driver: called for domain  2
Timing for main: time 2016-02-05_17:59:33 on domain   3:     .16092 elapsed seconds
Timing for main: time 2016-02-05_17:59:46 on domain   3:     .14688 elapsed seconds
  photolysis_driver: called for domain  3
Timing for main: time 2016-02-05_18:00:00 on domain   3:     .84158 elapsed seconds
Timing for Writing wrfout_d03_2016-02-05_18:00:00 for domain        3:    1.87372 elapsed seconds
Timing for main: time 2016-02-05_17:59:40 on domain   4:     .21330 elapsed seconds
  photolysis_driver: called for domain  4
Timing for main: time 2016-02-05_18:00:00 on domain   4:    1.02340 elapsed seconds
Timing for Writing wrfout_d04_2016-02-05_18:00:00 for domain        4:    2.10037 elapsed seconds
Timing for main: time 2016-02-05_18:00:00 on domain   2:    7.82416 elapsed seconds
Timing for Writing wrfout_d02_2016-02-05_18:00:00 for domain        2:    2.87201 elapsed seconds
Timing for main: time 2016-02-05_18:00:00 on domain   1:   14.41938 elapsed seconds
Timing for Writing wrfout_d01_2016-02-05_18:00:00 for domain        1:    2.40499 elapsed seconds
 d01 2016-02-05_18:00:00 wrf: SUCCESS COMPLETE WRF
