taskid: 0 hostname: p10a51.pbm.ihost.com
  Ntasks in X  15 , ntasks in Y  16
 Setting blank km_opt entries to domain #1 values.
  --> The km_opt entry in the namelist.input is now max_domains.
 Setting blank diff_opt entries to domain #1 values.
  --> The diff_opt entry in the namelist.input is now max_domains.
 --- WARNING: traj_opt is zero, but num_traj is not zero; setting num_traj to zero.
 --- NOTE: hypsometric_opt is 2, setting adjust_heights = F
 --- NOTE: sst_update is 0, setting io_form_auxinput4 = 0 and auxinput4_interval = 0 for all domains
 --- NOTE: sst_update is 0, setting io_form_auxinput4 = 0 and auxinput4_interval = 0 for all domains
 --- NOTE: sst_update is 0, setting io_form_auxinput4 = 0 and auxinput4_interval = 0 for all domains
 --- NOTE: sst_update is 0, setting io_form_auxinput4 = 0 and auxinput4_interval = 0 for all domains
 --- NOTE: grid_fdda is 0 for domain      1, setting gfdda interval and ending time to 0 for that domain.
 --- NOTE: both grid_sfdda and pxlsm_soil_nudge are 0 for domain      1, setting sgfdda interval and ending time to 0 for that domain.
 --- NOTE: obs_nudge_opt is 0 for domain      1, setting obs nudging interval and ending time to 0 for that domain.
 --- NOTE: grid_fdda is 0 for domain      2, setting gfdda interval and ending time to 0 for that domain.
 --- NOTE: both grid_sfdda and pxlsm_soil_nudge are 0 for domain      2, setting sgfdda interval and ending time to 0 for that domain.
 --- NOTE: obs_nudge_opt is 0 for domain      2, setting obs nudging interval and ending time to 0 for that domain.
 --- NOTE: grid_fdda is 0 for domain      3, setting gfdda interval and ending time to 0 for that domain.
 --- NOTE: both grid_sfdda and pxlsm_soil_nudge are 0 for domain      3, setting sgfdda interval and ending time to 0 for that domain.
 --- NOTE: obs_nudge_opt is 0 for domain      3, setting obs nudging interval and ending time to 0 for that domain.
 --- NOTE: grid_fdda is 0 for domain      4, setting gfdda interval and ending time to 0 for that domain.
 --- NOTE: both grid_sfdda and pxlsm_soil_nudge are 0 for domain      4, setting sgfdda interval and ending time to 0 for that domain.
 --- NOTE: obs_nudge_opt is 0 for domain      4, setting obs nudging interval and ending time to 0 for that domain.
 bl_pbl_physics /= 4, implies mfshconv must be 0, resetting
 --- NOTE: num_soil_layers has been set to      4
 WRF V3.6 MODEL
  *************************************
  Parent domain
  ids,ide,jds,jde  1 271 1 181
  ims,ime,jms,jme  -4 25 -4 19
  ips,ipe,jps,jpe  1 18 1 12
  *************************************
 DYNAMICS OPTION: Eulerian Mass Coordinate
    alloc_space_field: domain  1 ,  74140288  bytes allocated
   med_initialdata_input: calling input_input
Timing for processing wrfinput file (stream 0) for domain        1:    4.89987 elapsed seconds
 INPUT LandUse = "USGS"
  LANDUSE TYPE = "USGS" FOUND 33  CATEGORIES 2  SEASONS WATER CATEGORY =  16  SNOW CATEGORY =  24
 INITIALIZE THREE Noah LSM RELATED TABLES
  LANDUSE TYPE = USGS FOUND 27  CATEGORIES
  INPUT SOIL TEXTURE CLASSIFICATION = STAS
  SOIL TEXTURE CLASSIFICATION = STAS FOUND 19  CATEGORIES
 *********************************************************************
 *             PROGRAM:WRF/CHEM V3.6 MODEL
 *                                                                   *
 *    PLEASE REPORT ANY BUGS TO WRF/CHEM HELP at                     *
 *                                                                   *
 *              wrfchemhelp.gsd@noaa.gov                             *
 *                                                                   *
 *********************************************************************
 WARNING: dust option 1 currently works only with the GOCART aerosol option.
 WARNING: sea salt option 1 currently works only with the GOCART aerosol option.
  *************************************
  Nesting domain
  ids,ide,jds,jde  1 361 1 253
  ims,ime,jms,jme  -4 36 -4 27
  ips,ipe,jps,jpe  1 24 1 16
  INTERMEDIATE domain
  ids,ide,jds,jde  74 199 47 136
  ims,ime,jms,jme  69 93 42 63
  ips,ipe,jps,jpe  72 83 45 53
  *************************************
 d01 2016-02-05_12:00:00  alloc_space_field: domain  2 ,  131229456  bytes allocated
 d01 2016-02-05_12:00:00 *** Initializing nest domain # 2 from an input file. ***
 d01 2016-02-05_12:00:00 med_initialdata_input: calling input_input
Timing for processing wrfinput file (stream 0) for domain        2:    8.14916 elapsed seconds
 INPUT LandUse = "USGS"
  LANDUSE TYPE = "USGS" FOUND 33  CATEGORIES 2  SEASONS WATER CATEGORY =  16  SNOW CATEGORY =  24
 INITIALIZE THREE Noah LSM RELATED TABLES
  LANDUSE TYPE = USGS FOUND 27  CATEGORIES
  INPUT SOIL TEXTURE CLASSIFICATION = STAS
  SOIL TEXTURE CLASSIFICATION = STAS FOUND 19  CATEGORIES
 *********************************************************************
 *             PROGRAM:WRF/CHEM V3.6 MODEL
 *                                                                   *
 *    PLEASE REPORT ANY BUGS TO WRF/CHEM HELP at                     *
 *                                                                   *
 *              wrfchemhelp.gsd@noaa.gov                             *
 *                                                                   *
 *********************************************************************
 WARNING: dust option 1 currently works only with the GOCART aerosol option.
 WARNING: sea salt option 1 currently works only with the GOCART aerosol option.
 INPUT LandUse = "USGS"
  LANDUSE TYPE = "USGS" FOUND 33  CATEGORIES 2  SEASONS WATER CATEGORY =  16  SNOW CATEGORY =  24
 INITIALIZE THREE Noah LSM RELATED TABLES
  LANDUSE TYPE = USGS FOUND 27  CATEGORIES
  INPUT SOIL TEXTURE CLASSIFICATION = STAS
  SOIL TEXTURE CLASSIFICATION = STAS FOUND 19  CATEGORIES
 *********************************************************************
 *             PROGRAM:WRF/CHEM V3.6 MODEL
 *                                                                   *
 *    PLEASE REPORT ANY BUGS TO WRF/CHEM HELP at                     *
 *                                                                   *
 *              wrfchemhelp.gsd@noaa.gov                             *
 *                                                                   *
 *********************************************************************
 WARNING: dust option 1 currently works only with the GOCART aerosol option.
 WARNING: sea salt option 1 currently works only with the GOCART aerosol option.
 INPUT LandUse = "USGS"
  LANDUSE TYPE = "USGS" FOUND 33  CATEGORIES 2  SEASONS WATER CATEGORY =  16  SNOW CATEGORY =  24
 INITIALIZE THREE Noah LSM RELATED TABLES
  LANDUSE TYPE = USGS FOUND 27  CATEGORIES
  INPUT SOIL TEXTURE CLASSIFICATION = STAS
  SOIL TEXTURE CLASSIFICATION = STAS FOUND 19  CATEGORIES
 *********************************************************************
 *             PROGRAM:WRF/CHEM V3.6 MODEL
 *                                                                   *
 *    PLEASE REPORT ANY BUGS TO WRF/CHEM HELP at                     *
 *                                                                   *
 *              wrfchemhelp.gsd@noaa.gov                             *
 *                                                                   *
 *********************************************************************
 WARNING: dust option 1 currently works only with the GOCART aerosol option.
 WARNING: sea salt option 1 currently works only with the GOCART aerosol option.
Timing for Writing wrfout_d01_2016-02-05_12:00:00 for domain        1:    2.25962 elapsed seconds
  mediation_integrate: med_read_wrf_chem_emissions: Open file wrfchemi_12z_d01
  HOURLY EMISSIONS UPDATE TIME         .0        .0
 mediation_integrate: med_read_wrf_chem_emissions: Read emissions for time 2016-02-05_12:00:00
 **WARNING** Time in input file not being checked **WARNING**
Timing for processing lateral boundary for domain        1:    3.96532 elapsed seconds
  Tile Strategy is not specified. Assuming 1D-Y
 WRF TILE   1 IS      1 IE     18 JS      1 JE     12
 WRF NUMBER OF TILES =   1
  photolysis_driver: called for domain  1
  *************************************
  Nesting domain
  ids,ide,jds,jde  1 307 1 241
  ims,ime,jms,jme  -4 33 -4 27
  ips,ipe,jps,jpe  1 21 1 15
  INTERMEDIATE domain
  ids,ide,jds,jde  124 231 35 120
  ims,ime,jms,jme  119 142 30 51
  ips,ipe,jps,jpe  122 132 33 41
  *************************************
 d02 2016-02-05_12:00:00  alloc_space_field: domain  3 ,  121923436  bytes allocated
 d02 2016-02-05_12:00:00  alloc_space_field: domain  3 ,  6650688  bytes allocated
 d02 2016-02-05_12:00:00 *** Initializing nest domain # 3 from an input file. ***
 d02 2016-02-05_12:00:00 med_initialdata_input: calling input_input
Timing for processing wrfinput file (stream 0) for domain        3:    6.25911 elapsed seconds
 INPUT LandUse = "USGS"
  LANDUSE TYPE = "USGS" FOUND 33  CATEGORIES 2  SEASONS WATER CATEGORY =  16  SNOW CATEGORY =  24
 INITIALIZE THREE Noah LSM RELATED TABLES
  LANDUSE TYPE = USGS FOUND 27  CATEGORIES
  INPUT SOIL TEXTURE CLASSIFICATION = STAS
  SOIL TEXTURE CLASSIFICATION = STAS FOUND 19  CATEGORIES
 *********************************************************************
 *             PROGRAM:WRF/CHEM V3.6 MODEL
 *                                                                   *
 *    PLEASE REPORT ANY BUGS TO WRF/CHEM HELP at                     *
 *                                                                   *
 *              wrfchemhelp.gsd@noaa.gov                             *
 *                                                                   *
 *********************************************************************
 WARNING: dust option 1 currently works only with the GOCART aerosol option.
 WARNING: sea salt option 1 currently works only with the GOCART aerosol option.
 INPUT LandUse = "USGS"
  LANDUSE TYPE = "USGS" FOUND 33  CATEGORIES 2  SEASONS WATER CATEGORY =  16  SNOW CATEGORY =  24
 INITIALIZE THREE Noah LSM RELATED TABLES
  LANDUSE TYPE = USGS FOUND 27  CATEGORIES
  INPUT SOIL TEXTURE CLASSIFICATION = STAS
  SOIL TEXTURE CLASSIFICATION = STAS FOUND 19  CATEGORIES
 *********************************************************************
 *             PROGRAM:WRF/CHEM V3.6 MODEL
 *                                                                   *
 *    PLEASE REPORT ANY BUGS TO WRF/CHEM HELP at                     *
 *                                                                   *
 *              wrfchemhelp.gsd@noaa.gov                             *
 *                                                                   *
 *********************************************************************
 WARNING: dust option 1 currently works only with the GOCART aerosol option.
 WARNING: sea salt option 1 currently works only with the GOCART aerosol option.
 INPUT LandUse = "USGS"
  LANDUSE TYPE = "USGS" FOUND 33  CATEGORIES 2  SEASONS WATER CATEGORY =  16  SNOW CATEGORY =  24
 INITIALIZE THREE Noah LSM RELATED TABLES
  LANDUSE TYPE = USGS FOUND 27  CATEGORIES
  INPUT SOIL TEXTURE CLASSIFICATION = STAS
  SOIL TEXTURE CLASSIFICATION = STAS FOUND 19  CATEGORIES
 *********************************************************************
 *             PROGRAM:WRF/CHEM V3.6 MODEL
 *                                                                   *
 *    PLEASE REPORT ANY BUGS TO WRF/CHEM HELP at                     *
 *                                                                   *
 *              wrfchemhelp.gsd@noaa.gov                             *
 *                                                                   *
 *********************************************************************
 WARNING: dust option 1 currently works only with the GOCART aerosol option.
 WARNING: sea salt option 1 currently works only with the GOCART aerosol option.
  *************************************
  Nesting domain
  ids,ide,jds,jde  1 217 1 388
  ims,ime,jms,jme  -4 27 -4 36
  ips,ipe,jps,jpe  1 15 1 25
  INTERMEDIATE domain
  ids,ide,jds,jde  225 302 83 217
  ims,ime,jms,jme  220 241 78 102
  ips,ipe,jps,jpe  223 231 81 92
  *************************************
 d02 2016-02-05_12:00:00  alloc_space_field: domain  4 ,  131190972  bytes allocated
 d02 2016-02-05_12:00:00  alloc_space_field: domain  4 ,  6927800  bytes allocated
 d02 2016-02-05_12:00:00 *** Initializing nest domain # 4 from an input file. ***
 d02 2016-02-05_12:00:00 med_initialdata_input: calling input_input
Timing for processing wrfinput file (stream 0) for domain        4:    7.69315 elapsed seconds
 INPUT LandUse = "USGS"
  LANDUSE TYPE = "USGS" FOUND 33  CATEGORIES 2  SEASONS WATER CATEGORY =  16  SNOW CATEGORY =  24
 INITIALIZE THREE Noah LSM RELATED TABLES
  LANDUSE TYPE = USGS FOUND 27  CATEGORIES
  INPUT SOIL TEXTURE CLASSIFICATION = STAS
  SOIL TEXTURE CLASSIFICATION = STAS FOUND 19  CATEGORIES
 *********************************************************************
 *             PROGRAM:WRF/CHEM V3.6 MODEL
 *                                                                   *
 *    PLEASE REPORT ANY BUGS TO WRF/CHEM HELP at                     *
 *                                                                   *
 *              wrfchemhelp.gsd@noaa.gov                             *
 *                                                                   *
 *********************************************************************
 WARNING: dust option 1 currently works only with the GOCART aerosol option.
 WARNING: sea salt option 1 currently works only with the GOCART aerosol option.
 INPUT LandUse = "USGS"
  LANDUSE TYPE = "USGS" FOUND 33  CATEGORIES 2  SEASONS WATER CATEGORY =  16  SNOW CATEGORY =  24
 INITIALIZE THREE Noah LSM RELATED TABLES
  LANDUSE TYPE = USGS FOUND 27  CATEGORIES
  INPUT SOIL TEXTURE CLASSIFICATION = STAS
  SOIL TEXTURE CLASSIFICATION = STAS FOUND 19  CATEGORIES
 *********************************************************************
 *             PROGRAM:WRF/CHEM V3.6 MODEL
 *                                                                   *
 *    PLEASE REPORT ANY BUGS TO WRF/CHEM HELP at                     *
 *                                                                   *
 *              wrfchemhelp.gsd@noaa.gov                             *
 *                                                                   *
 *********************************************************************
 WARNING: dust option 1 currently works only with the GOCART aerosol option.
 WARNING: sea salt option 1 currently works only with the GOCART aerosol option.
 INPUT LandUse = "USGS"
  LANDUSE TYPE = "USGS" FOUND 33  CATEGORIES 2  SEASONS WATER CATEGORY =  16  SNOW CATEGORY =  24
 INITIALIZE THREE Noah LSM RELATED TABLES
  LANDUSE TYPE = USGS FOUND 27  CATEGORIES
  INPUT SOIL TEXTURE CLASSIFICATION = STAS
  SOIL TEXTURE CLASSIFICATION = STAS FOUND 19  CATEGORIES
 *********************************************************************
 *             PROGRAM:WRF/CHEM V3.6 MODEL
 *                                                                   *
 *    PLEASE REPORT ANY BUGS TO WRF/CHEM HELP at                     *
 *                                                                   *
 *              wrfchemhelp.gsd@noaa.gov                             *
 *                                                                   *
 *********************************************************************
 WARNING: dust option 1 currently works only with the GOCART aerosol option.
 WARNING: sea salt option 1 currently works only with the GOCART aerosol option.
Timing for Writing wrfout_d02_2016-02-05_12:00:00 for domain        2:    3.00871 elapsed seconds
  mediation_integrate: med_read_wrf_chem_emissions: Open file wrfchemi_12z_d02
  HOURLY EMISSIONS UPDATE TIME         .0        .0
 mediation_integrate: med_read_wrf_chem_emissions: Read emissions for time 2016-02-05_12:00:00
 **WARNING** Time in input file not being checked **WARNING**
  Tile Strategy is not specified. Assuming 1D-Y
 WRF TILE   1 IS      1 IE     24 JS      1 JE     16
 WRF NUMBER OF TILES =   1
  photolysis_driver: called for domain  2
Timing for Writing wrfout_d03_2016-02-05_12:00:00 for domain        3:    3.00579 elapsed seconds
  mediation_integrate: med_read_wrf_chem_emissions: Open file wrfchemi_12z_d03
  HOURLY EMISSIONS UPDATE TIME         .0        .0
 mediation_integrate: med_read_wrf_chem_emissions: Read emissions for time 2016-02-05_12:00:00
 **WARNING** Time in input file not being checked **WARNING**
  Tile Strategy is not specified. Assuming 1D-Y
 WRF TILE   1 IS      1 IE     21 JS      1 JE     15
 WRF NUMBER OF TILES =   1
  photolysis_driver: called for domain  3
Timing for main: time 2016-02-05_12:00:13 on domain   3:    5.69703 elapsed seconds
Timing for main: time 2016-02-05_12:00:26 on domain   3:     .24731 elapsed seconds
Timing for main: time 2016-02-05_12:00:40 on domain   3:     .23299 elapsed seconds
Timing for Writing wrfout_d04_2016-02-05_12:00:00 for domain        4:    3.23057 elapsed seconds
  mediation_integrate: med_read_wrf_chem_emissions: Open file wrfchemi_12z_d04
  HOURLY EMISSIONS UPDATE TIME         .0        .0
 mediation_integrate: med_read_wrf_chem_emissions: Read emissions for time 2016-02-05_12:00:00
 **WARNING** Time in input file not being checked **WARNING**
  Tile Strategy is not specified. Assuming 1D-Y
 WRF TILE   1 IS      1 IE     15 JS      1 JE     25
 WRF NUMBER OF TILES =   1
  photolysis_driver: called for domain  4
Timing for main: time 2016-02-05_12:00:20 on domain   4:    6.72484 elapsed seconds
Timing for main: time 2016-02-05_12:00:40 on domain   4:     .29918 elapsed seconds
Timing for main: time 2016-02-05_12:00:40 on domain   2:   36.89113 elapsed seconds
Timing for main: time 2016-02-05_12:00:53 on domain   3:     .25577 elapsed seconds
Timing for main: time 2016-02-05_12:01:06 on domain   3:     .20466 elapsed seconds
Timing for main: time 2016-02-05_12:01:20 on domain   3:     .21084 elapsed seconds
Timing for main: time 2016-02-05_12:01:00 on domain   4:     .25781 elapsed seconds
Timing for main: time 2016-02-05_12:01:20 on domain   4:     .25421 elapsed seconds
Timing for main: time 2016-02-05_12:01:20 on domain   2:    2.01987 elapsed seconds
Timing for main: time 2016-02-05_12:01:33 on domain   3:     .23186 elapsed seconds
Timing for main: time 2016-02-05_12:01:46 on domain   3:     .20963 elapsed seconds
Timing for main: time 2016-02-05_12:02:00 on domain   3:     .21080 elapsed seconds
Timing for main: time 2016-02-05_12:01:40 on domain   4:     .25970 elapsed seconds
Timing for main: time 2016-02-05_12:02:00 on domain   4:     .25569 elapsed seconds
Timing for main: time 2016-02-05_12:02:00 on domain   2:    2.01510 elapsed seconds
Timing for main: time 2016-02-05_12:02:00 on domain   1:   61.00800 elapsed seconds
Timing for main: time 2016-02-05_12:02:13 on domain   3:     .23903 elapsed seconds
Timing for main: time 2016-02-05_12:02:26 on domain   3:     .20927 elapsed seconds
Timing for main: time 2016-02-05_12:02:40 on domain   3:     .21005 elapsed seconds
Timing for main: time 2016-02-05_12:02:20 on domain   4:     .26050 elapsed seconds
Timing for main: time 2016-02-05_12:02:40 on domain   4:     .25438 elapsed seconds
Timing for main: time 2016-02-05_12:02:40 on domain   2:    2.03981 elapsed seconds
Timing for main: time 2016-02-05_12:02:53 on domain   3:     .23175 elapsed seconds
Timing for main: time 2016-02-05_12:03:06 on domain   3:     .21579 elapsed seconds
Timing for main: time 2016-02-05_12:03:20 on domain   3:     .21170 elapsed seconds
Timing for main: time 2016-02-05_12:03:00 on domain   4:     .26033 elapsed seconds
Timing for main: time 2016-02-05_12:03:20 on domain   4:     .25468 elapsed seconds
Timing for main: time 2016-02-05_12:03:20 on domain   2:    2.02319 elapsed seconds
Timing for main: time 2016-02-05_12:03:33 on domain   3:     .23333 elapsed seconds
Timing for main: time 2016-02-05_12:03:46 on domain   3:     .20934 elapsed seconds
Timing for main: time 2016-02-05_12:04:00 on domain   3:     .21147 elapsed seconds
Timing for main: time 2016-02-05_12:03:40 on domain   4:     .26063 elapsed seconds
Timing for main: time 2016-02-05_12:04:00 on domain   4:     .25461 elapsed seconds
Timing for main: time 2016-02-05_12:04:00 on domain   2:    2.01607 elapsed seconds
Timing for main: time 2016-02-05_12:04:00 on domain   1:    6.58398 elapsed seconds
Timing for main: time 2016-02-05_12:04:13 on domain   3:     .23618 elapsed seconds
Timing for main: time 2016-02-05_12:04:26 on domain   3:     .21142 elapsed seconds
Timing for main: time 2016-02-05_12:04:40 on domain   3:     .20873 elapsed seconds
Timing for main: time 2016-02-05_12:04:20 on domain   4:     .26078 elapsed seconds
Timing for main: time 2016-02-05_12:04:40 on domain   4:     .25453 elapsed seconds
Timing for main: time 2016-02-05_12:04:40 on domain   2:    2.03286 elapsed seconds
Timing for main: time 2016-02-05_12:04:53 on domain   3:     .23461 elapsed seconds
Timing for main: time 2016-02-05_12:05:06 on domain   3:     .21721 elapsed seconds
Timing for main: time 2016-02-05_12:05:20 on domain   3:     .21086 elapsed seconds
Timing for main: time 2016-02-05_12:05:00 on domain   4:     .26962 elapsed seconds
Timing for main: time 2016-02-05_12:05:20 on domain   4:     .25553 elapsed seconds
Timing for main: time 2016-02-05_12:05:20 on domain   2:    2.04981 elapsed seconds
Timing for main: time 2016-02-05_12:05:33 on domain   3:     .23316 elapsed seconds
Timing for main: time 2016-02-05_12:05:46 on domain   3:     .21102 elapsed seconds
Timing for main: time 2016-02-05_12:06:00 on domain   3:     .21022 elapsed seconds
Timing for main: time 2016-02-05_12:05:40 on domain   4:     .25985 elapsed seconds
Timing for main: time 2016-02-05_12:06:00 on domain   4:     .25626 elapsed seconds
Timing for main: time 2016-02-05_12:06:00 on domain   2:    2.01836 elapsed seconds
Timing for main: time 2016-02-05_12:06:00 on domain   1:    6.53070 elapsed seconds
Timing for main: time 2016-02-05_12:06:13 on domain   3:     .23446 elapsed seconds
Timing for main: time 2016-02-05_12:06:26 on domain   3:     .20904 elapsed seconds
Timing for main: time 2016-02-05_12:06:40 on domain   3:     .21171 elapsed seconds
Timing for main: time 2016-02-05_12:06:20 on domain   4:     .25983 elapsed seconds
Timing for main: time 2016-02-05_12:06:40 on domain   4:     .25601 elapsed seconds
Timing for main: time 2016-02-05_12:06:40 on domain   2:    2.02847 elapsed seconds
Timing for main: time 2016-02-05_12:06:53 on domain   3:     .23532 elapsed seconds
Timing for main: time 2016-02-05_12:07:06 on domain   3:     .20914 elapsed seconds
Timing for main: time 2016-02-05_12:07:20 on domain   3:     .21019 elapsed seconds
Timing for main: time 2016-02-05_12:07:00 on domain   4:     .25970 elapsed seconds
Timing for main: time 2016-02-05_12:07:20 on domain   4:     .25570 elapsed seconds
Timing for main: time 2016-02-05_12:07:20 on domain   2:    2.01607 elapsed seconds
Timing for main: time 2016-02-05_12:07:33 on domain   3:     .23563 elapsed seconds
Timing for main: time 2016-02-05_12:07:46 on domain   3:     .21284 elapsed seconds
Timing for main: time 2016-02-05_12:08:00 on domain   3:     .21041 elapsed seconds
Timing for main: time 2016-02-05_12:07:40 on domain   4:     .25927 elapsed seconds
Timing for main: time 2016-02-05_12:08:00 on domain   4:     .25614 elapsed seconds
Timing for main: time 2016-02-05_12:08:00 on domain   2:    2.02458 elapsed seconds
Timing for main: time 2016-02-05_12:08:00 on domain   1:    6.49265 elapsed seconds
Timing for main: time 2016-02-05_12:08:13 on domain   3:     .23590 elapsed seconds
Timing for main: time 2016-02-05_12:08:26 on domain   3:     .21020 elapsed seconds
Timing for main: time 2016-02-05_12:08:40 on domain   3:     .21182 elapsed seconds
Timing for main: time 2016-02-05_12:08:20 on domain   4:     .25995 elapsed seconds
Timing for main: time 2016-02-05_12:08:40 on domain   4:     .25633 elapsed seconds
Timing for main: time 2016-02-05_12:08:40 on domain   2:    2.02918 elapsed seconds
Timing for main: time 2016-02-05_12:08:53 on domain   3:     .23659 elapsed seconds
Timing for main: time 2016-02-05_12:09:06 on domain   3:     .21169 elapsed seconds
Timing for main: time 2016-02-05_12:09:20 on domain   3:     .21115 elapsed seconds
Timing for main: time 2016-02-05_12:09:00 on domain   4:     .25778 elapsed seconds
Timing for main: time 2016-02-05_12:09:20 on domain   4:     .25957 elapsed seconds
Timing for main: time 2016-02-05_12:09:20 on domain   2:    2.02187 elapsed seconds
Timing for main: time 2016-02-05_12:09:33 on domain   3:     .23896 elapsed seconds
Timing for main: time 2016-02-05_12:09:46 on domain   3:     .22909 elapsed seconds
Timing for main: time 2016-02-05_12:10:00 on domain   3:     .21684 elapsed seconds
Timing for main: time 2016-02-05_12:09:40 on domain   4:     .25320 elapsed seconds
Timing for main: time 2016-02-05_12:10:00 on domain   4:     .26590 elapsed seconds
Timing for main: time 2016-02-05_12:10:00 on domain   2:    2.06841 elapsed seconds
Timing for main: time 2016-02-05_12:10:00 on domain   1:    6.54319 elapsed seconds
Timing for main: time 2016-02-05_12:10:13 on domain   3:     .24296 elapsed seconds
Timing for main: time 2016-02-05_12:10:26 on domain   3:     .21055 elapsed seconds
Timing for main: time 2016-02-05_12:10:40 on domain   3:     .21090 elapsed seconds
Timing for main: time 2016-02-05_12:10:20 on domain   4:     .25879 elapsed seconds
Timing for main: time 2016-02-05_12:10:40 on domain   4:     .25599 elapsed seconds
Timing for main: time 2016-02-05_12:10:40 on domain   2:    2.05265 elapsed seconds
Timing for main: time 2016-02-05_12:10:53 on domain   3:     .23485 elapsed seconds
Timing for main: time 2016-02-05_12:11:06 on domain   3:     .21141 elapsed seconds
Timing for main: time 2016-02-05_12:11:20 on domain   3:     .21161 elapsed seconds
Timing for main: time 2016-02-05_12:11:00 on domain   4:     .25979 elapsed seconds
Timing for main: time 2016-02-05_12:11:20 on domain   4:     .25565 elapsed seconds
Timing for main: time 2016-02-05_12:11:20 on domain   2:    2.02071 elapsed seconds
Timing for main: time 2016-02-05_12:11:33 on domain   3:     .23580 elapsed seconds
Timing for main: time 2016-02-05_12:11:46 on domain   3:     .21104 elapsed seconds
Timing for main: time 2016-02-05_12:12:00 on domain   3:     .21071 elapsed seconds
Timing for main: time 2016-02-05_12:11:40 on domain   4:     .25939 elapsed seconds
Timing for main: time 2016-02-05_12:12:00 on domain   4:     .25633 elapsed seconds
Timing for main: time 2016-02-05_12:12:00 on domain   2:    2.01892 elapsed seconds
Timing for main: time 2016-02-05_12:12:00 on domain   1:    6.52230 elapsed seconds
Timing for main: time 2016-02-05_12:12:13 on domain   3:     .23601 elapsed seconds
Timing for main: time 2016-02-05_12:12:26 on domain   3:     .20882 elapsed seconds
Timing for main: time 2016-02-05_12:12:40 on domain   3:     .21092 elapsed seconds
Timing for main: time 2016-02-05_12:12:20 on domain   4:     .25956 elapsed seconds
Timing for main: time 2016-02-05_12:12:40 on domain   4:     .25638 elapsed seconds
Timing for main: time 2016-02-05_12:12:40 on domain   2:    2.02904 elapsed seconds
Timing for main: time 2016-02-05_12:12:53 on domain   3:     .23690 elapsed seconds
Timing for main: time 2016-02-05_12:13:06 on domain   3:     .21417 elapsed seconds
Timing for main: time 2016-02-05_12:13:20 on domain   3:     .21134 elapsed seconds
Timing for main: time 2016-02-05_12:13:00 on domain   4:     .25937 elapsed seconds
Timing for main: time 2016-02-05_12:13:20 on domain   4:     .25654 elapsed seconds
Timing for main: time 2016-02-05_12:13:20 on domain   2:    2.02441 elapsed seconds
Timing for main: time 2016-02-05_12:13:33 on domain   3:     .23584 elapsed seconds
Timing for main: time 2016-02-05_12:13:46 on domain   3:     .20973 elapsed seconds
Timing for main: time 2016-02-05_12:14:00 on domain   3:     .21053 elapsed seconds
Timing for main: time 2016-02-05_12:13:40 on domain   4:     .26020 elapsed seconds
Timing for main: time 2016-02-05_12:14:00 on domain   4:     .25770 elapsed seconds
Timing for main: time 2016-02-05_12:14:00 on domain   2:    2.02001 elapsed seconds
Timing for main: time 2016-02-05_12:14:00 on domain   1:    6.49661 elapsed seconds
Timing for main: time 2016-02-05_12:14:13 on domain   3:     .23568 elapsed seconds
Timing for main: time 2016-02-05_12:14:26 on domain   3:     .21094 elapsed seconds
Timing for main: time 2016-02-05_12:14:40 on domain   3:     .21005 elapsed seconds
Timing for main: time 2016-02-05_12:14:20 on domain   4:     .25951 elapsed seconds
Timing for main: time 2016-02-05_12:14:40 on domain   4:     .25591 elapsed seconds
Timing for main: time 2016-02-05_12:14:40 on domain   2:    2.02882 elapsed seconds
Timing for main: time 2016-02-05_12:14:53 on domain   3:     .23633 elapsed seconds
Timing for main: time 2016-02-05_12:15:06 on domain   3:     .20994 elapsed seconds
Timing for main: time 2016-02-05_12:15:20 on domain   3:     .21887 elapsed seconds
Timing for main: time 2016-02-05_12:15:00 on domain   4:     .27008 elapsed seconds
Timing for main: time 2016-02-05_12:15:20 on domain   4:     .25684 elapsed seconds
Timing for main: time 2016-02-05_12:15:20 on domain   2:    2.03786 elapsed seconds
Timing for main: time 2016-02-05_12:15:33 on domain   3:     .23660 elapsed seconds
Timing for main: time 2016-02-05_12:15:46 on domain   3:     .25745 elapsed seconds
Timing for main: time 2016-02-05_12:16:00 on domain   3:     .24704 elapsed seconds
Timing for main: time 2016-02-05_12:15:40 on domain   4:     .25938 elapsed seconds
Timing for main: time 2016-02-05_12:16:00 on domain   4:     .25640 elapsed seconds
Timing for main: time 2016-02-05_12:16:00 on domain   2:    2.13622 elapsed seconds
Timing for main: time 2016-02-05_12:16:00 on domain   1:    6.63124 elapsed seconds
Timing for main: time 2016-02-05_12:16:13 on domain   3:     .23539 elapsed seconds
Timing for main: time 2016-02-05_12:16:26 on domain   3:     .21095 elapsed seconds
Timing for main: time 2016-02-05_12:16:40 on domain   3:     .20949 elapsed seconds
Timing for main: time 2016-02-05_12:16:20 on domain   4:     .26014 elapsed seconds
Timing for main: time 2016-02-05_12:16:40 on domain   4:     .25645 elapsed seconds
Timing for main: time 2016-02-05_12:16:40 on domain   2:    2.03022 elapsed seconds
Timing for main: time 2016-02-05_12:16:53 on domain   3:     .23540 elapsed seconds
Timing for main: time 2016-02-05_12:17:06 on domain   3:     .21218 elapsed seconds
Timing for main: time 2016-02-05_12:17:20 on domain   3:     .20994 elapsed seconds
Timing for main: time 2016-02-05_12:17:00 on domain   4:     .26016 elapsed seconds
Timing for main: time 2016-02-05_12:17:20 on domain   4:     .25602 elapsed seconds
Timing for main: time 2016-02-05_12:17:20 on domain   2:    2.02164 elapsed seconds
Timing for main: time 2016-02-05_12:17:33 on domain   3:     .23548 elapsed seconds
Timing for main: time 2016-02-05_12:17:46 on domain   3:     .21081 elapsed seconds
Timing for main: time 2016-02-05_12:18:00 on domain   3:     .20935 elapsed seconds
Timing for main: time 2016-02-05_12:17:40 on domain   4:     .25977 elapsed seconds
Timing for main: time 2016-02-05_12:18:00 on domain   4:     .25627 elapsed seconds
Timing for main: time 2016-02-05_12:18:00 on domain   2:    2.01786 elapsed seconds
Timing for main: time 2016-02-05_12:18:00 on domain   1:    6.49894 elapsed seconds
Timing for main: time 2016-02-05_12:18:13 on domain   3:     .23525 elapsed seconds
Timing for main: time 2016-02-05_12:18:26 on domain   3:     .21092 elapsed seconds
Timing for main: time 2016-02-05_12:18:40 on domain   3:     .21163 elapsed seconds
Timing for main: time 2016-02-05_12:18:20 on domain   4:     .25959 elapsed seconds
Timing for main: time 2016-02-05_12:18:40 on domain   4:     .25896 elapsed seconds
Timing for main: time 2016-02-05_12:18:40 on domain   2:    2.03597 elapsed seconds
Timing for main: time 2016-02-05_12:18:53 on domain   3:     .23627 elapsed seconds
Timing for main: time 2016-02-05_12:19:06 on domain   3:     .21090 elapsed seconds
Timing for main: time 2016-02-05_12:19:20 on domain   3:     .21013 elapsed seconds
Timing for main: time 2016-02-05_12:19:00 on domain   4:     .25961 elapsed seconds
Timing for main: time 2016-02-05_12:19:20 on domain   4:     .25652 elapsed seconds
Timing for main: time 2016-02-05_12:19:20 on domain   2:    2.02199 elapsed seconds
Timing for main: time 2016-02-05_12:19:33 on domain   3:     .23629 elapsed seconds
Timing for main: time 2016-02-05_12:19:46 on domain   3:     .20973 elapsed seconds
Timing for main: time 2016-02-05_12:20:00 on domain   3:     .21049 elapsed seconds
Timing for main: time 2016-02-05_12:19:40 on domain   4:     .25875 elapsed seconds
Timing for main: time 2016-02-05_12:20:00 on domain   4:     .26580 elapsed seconds
Timing for main: time 2016-02-05_12:20:00 on domain   2:    2.03040 elapsed seconds
Timing for main: time 2016-02-05_12:20:00 on domain   1:    6.51231 elapsed seconds
Timing for main: time 2016-02-05_12:20:13 on domain   3:     .23693 elapsed seconds
Timing for main: time 2016-02-05_12:20:26 on domain   3:     .22102 elapsed seconds
Timing for main: time 2016-02-05_12:20:40 on domain   3:     .21107 elapsed seconds
Timing for main: time 2016-02-05_12:20:20 on domain   4:     .26091 elapsed seconds
Timing for main: time 2016-02-05_12:20:40 on domain   4:     .25526 elapsed seconds
Timing for main: time 2016-02-05_12:20:40 on domain   2:    2.06148 elapsed seconds
Timing for main: time 2016-02-05_12:20:53 on domain   3:     .23549 elapsed seconds
Timing for main: time 2016-02-05_12:21:06 on domain   3:     .21055 elapsed seconds
Timing for main: time 2016-02-05_12:21:20 on domain   3:     .20999 elapsed seconds
Timing for main: time 2016-02-05_12:21:00 on domain   4:     .26118 elapsed seconds
Timing for main: time 2016-02-05_12:21:20 on domain   4:     .25464 elapsed seconds
Timing for main: time 2016-02-05_12:21:20 on domain   2:    2.03069 elapsed seconds
Timing for main: time 2016-02-05_12:21:33 on domain   3:     .23585 elapsed seconds
Timing for main: time 2016-02-05_12:21:46 on domain   3:     .21204 elapsed seconds
Timing for main: time 2016-02-05_12:22:00 on domain   3:     .21055 elapsed seconds
Timing for main: time 2016-02-05_12:21:40 on domain   4:     .26006 elapsed seconds
Timing for main: time 2016-02-05_12:22:00 on domain   4:     .25461 elapsed seconds
Timing for main: time 2016-02-05_12:22:00 on domain   2:    2.02115 elapsed seconds
Timing for main: time 2016-02-05_12:22:00 on domain   1:    6.53625 elapsed seconds
Timing for main: time 2016-02-05_12:22:13 on domain   3:     .23438 elapsed seconds
Timing for main: time 2016-02-05_12:22:26 on domain   3:     .21147 elapsed seconds
Timing for main: time 2016-02-05_12:22:40 on domain   3:     .21062 elapsed seconds
Timing for main: time 2016-02-05_12:22:20 on domain   4:     .25903 elapsed seconds
Timing for main: time 2016-02-05_12:22:40 on domain   4:     .25488 elapsed seconds
Timing for main: time 2016-02-05_12:22:40 on domain   2:    2.02597 elapsed seconds
Timing for main: time 2016-02-05_12:22:53 on domain   3:     .23673 elapsed seconds
Timing for main: time 2016-02-05_12:23:06 on domain   3:     .20973 elapsed seconds
Timing for main: time 2016-02-05_12:23:20 on domain   3:     .21118 elapsed seconds
Timing for main: time 2016-02-05_12:23:00 on domain   4:     .25896 elapsed seconds
Timing for main: time 2016-02-05_12:23:20 on domain   4:     .25426 elapsed seconds
Timing for main: time 2016-02-05_12:23:20 on domain   2:    2.01786 elapsed seconds
Timing for main: time 2016-02-05_12:23:33 on domain   3:     .23596 elapsed seconds
Timing for main: time 2016-02-05_12:23:46 on domain   3:     .21033 elapsed seconds
Timing for main: time 2016-02-05_12:24:00 on domain   3:     .21029 elapsed seconds
Timing for main: time 2016-02-05_12:23:40 on domain   4:     .25888 elapsed seconds
Timing for main: time 2016-02-05_12:24:00 on domain   4:     .25447 elapsed seconds
Timing for main: time 2016-02-05_12:24:00 on domain   2:    2.01609 elapsed seconds
Timing for main: time 2016-02-05_12:24:00 on domain   1:    6.48820 elapsed seconds
Timing for main: time 2016-02-05_12:24:13 on domain   3:     .26050 elapsed seconds
Timing for main: time 2016-02-05_12:24:26 on domain   3:     .21216 elapsed seconds
Timing for main: time 2016-02-05_12:24:40 on domain   3:     .21137 elapsed seconds
Timing for main: time 2016-02-05_12:24:20 on domain   4:     .26020 elapsed seconds
Timing for main: time 2016-02-05_12:24:40 on domain   4:     .25447 elapsed seconds
Timing for main: time 2016-02-05_12:24:40 on domain   2:    2.06774 elapsed seconds
Timing for main: time 2016-02-05_12:24:53 on domain   3:     .23575 elapsed seconds
Timing for main: time 2016-02-05_12:25:06 on domain   3:     .21026 elapsed seconds
Timing for main: time 2016-02-05_12:25:20 on domain   3:     .21006 elapsed seconds
Timing for main: time 2016-02-05_12:25:00 on domain   4:     .26889 elapsed seconds
Timing for main: time 2016-02-05_12:25:20 on domain   4:     .25434 elapsed seconds
Timing for main: time 2016-02-05_12:25:20 on domain   2:    2.02597 elapsed seconds
Timing for main: time 2016-02-05_12:25:33 on domain   3:     .24343 elapsed seconds
Timing for main: time 2016-02-05_12:25:46 on domain   3:     .21023 elapsed seconds
Timing for main: time 2016-02-05_12:26:00 on domain   3:     .21082 elapsed seconds
Timing for main: time 2016-02-05_12:25:40 on domain   4:     .25988 elapsed seconds
Timing for main: time 2016-02-05_12:26:00 on domain   4:     .25444 elapsed seconds
Timing for main: time 2016-02-05_12:26:00 on domain   2:    2.02383 elapsed seconds
Timing for main: time 2016-02-05_12:26:00 on domain   1:    6.54002 elapsed seconds
Timing for main: time 2016-02-05_12:26:13 on domain   3:     .23507 elapsed seconds
Timing for main: time 2016-02-05_12:26:26 on domain   3:     .21104 elapsed seconds
Timing for main: time 2016-02-05_12:26:40 on domain   3:     .21039 elapsed seconds
Timing for main: time 2016-02-05_12:26:20 on domain   4:     .25972 elapsed seconds
Timing for main: time 2016-02-05_12:26:40 on domain   4:     .25767 elapsed seconds
Timing for main: time 2016-02-05_12:26:40 on domain   2:    2.04083 elapsed seconds
Timing for main: time 2016-02-05_12:26:53 on domain   3:     .23526 elapsed seconds
Timing for main: time 2016-02-05_12:27:06 on domain   3:     .21095 elapsed seconds
Timing for main: time 2016-02-05_12:27:20 on domain   3:     .20922 elapsed seconds
Timing for main: time 2016-02-05_12:27:00 on domain   4:     .26077 elapsed seconds
Timing for main: time 2016-02-05_12:27:20 on domain   4:     .25578 elapsed seconds
Timing for main: time 2016-02-05_12:27:20 on domain   2:    2.01921 elapsed seconds
Timing for main: time 2016-02-05_12:27:33 on domain   3:     .23543 elapsed seconds
Timing for main: time 2016-02-05_12:27:46 on domain   3:     .20962 elapsed seconds
Timing for main: time 2016-02-05_12:28:00 on domain   3:     .21228 elapsed seconds
Timing for main: time 2016-02-05_12:27:40 on domain   4:     .26005 elapsed seconds
Timing for main: time 2016-02-05_12:28:00 on domain   4:     .25632 elapsed seconds
Timing for main: time 2016-02-05_12:28:00 on domain   2:    2.01938 elapsed seconds
Timing for main: time 2016-02-05_12:28:00 on domain   1:    6.50195 elapsed seconds
  photolysis_driver: called for domain  1
Timing for main: time 2016-02-05_12:28:13 on domain   3:     .23447 elapsed seconds
Timing for main: time 2016-02-05_12:28:26 on domain   3:     .20866 elapsed seconds
Timing for main: time 2016-02-05_12:28:40 on domain   3:     .21206 elapsed seconds
Timing for main: time 2016-02-05_12:28:20 on domain   4:     .26015 elapsed seconds
Timing for main: time 2016-02-05_12:28:40 on domain   4:     .25480 elapsed seconds
Timing for main: time 2016-02-05_12:28:40 on domain   2:    2.02740 elapsed seconds
Timing for main: time 2016-02-05_12:28:53 on domain   3:     .23502 elapsed seconds
Timing for main: time 2016-02-05_12:29:06 on domain   3:     .21081 elapsed seconds
Timing for main: time 2016-02-05_12:29:20 on domain   3:     .21040 elapsed seconds
Timing for main: time 2016-02-05_12:29:00 on domain   4:     .25995 elapsed seconds
Timing for main: time 2016-02-05_12:29:20 on domain   4:     .25469 elapsed seconds
Timing for main: time 2016-02-05_12:29:20 on domain   2:    2.01582 elapsed seconds
  photolysis_driver: called for domain  2
Timing for main: time 2016-02-05_12:29:33 on domain   3:     .23537 elapsed seconds
Timing for main: time 2016-02-05_12:29:46 on domain   3:     .21055 elapsed seconds
  photolysis_driver: called for domain  3
Timing for main: time 2016-02-05_12:30:00 on domain   3:    1.02466 elapsed seconds
Timing for main: time 2016-02-05_12:29:40 on domain   4:     .26476 elapsed seconds
  photolysis_driver: called for domain  4
Timing for main: time 2016-02-05_12:30:00 on domain   4:    1.34699 elapsed seconds
Timing for main: time 2016-02-05_12:30:00 on domain   2:    4.93802 elapsed seconds
Timing for main: time 2016-02-05_12:30:00 on domain   1:   10.04423 elapsed seconds
Timing for main: time 2016-02-05_12:30:13 on domain   3:     .40834 elapsed seconds
Timing for main: time 2016-02-05_12:30:26 on domain   3:     .20771 elapsed seconds
Timing for main: time 2016-02-05_12:30:40 on domain   3:     .21898 elapsed seconds
Timing for main: time 2016-02-05_12:30:20 on domain   4:     .46756 elapsed seconds
Timing for main: time 2016-02-05_12:30:40 on domain   4:     .25601 elapsed seconds
Timing for main: time 2016-02-05_12:30:40 on domain   2:    2.63168 elapsed seconds
Timing for main: time 2016-02-05_12:30:53 on domain   3:     .23462 elapsed seconds
Timing for main: time 2016-02-05_12:31:06 on domain   3:     .21196 elapsed seconds
Timing for main: time 2016-02-05_12:31:20 on domain   3:     .20815 elapsed seconds
Timing for main: time 2016-02-05_12:31:00 on domain   4:     .25913 elapsed seconds
Timing for main: time 2016-02-05_12:31:20 on domain   4:     .25518 elapsed seconds
Timing for main: time 2016-02-05_12:31:20 on domain   2:    2.01710 elapsed seconds
Timing for main: time 2016-02-05_12:31:33 on domain   3:     .23454 elapsed seconds
Timing for main: time 2016-02-05_12:31:46 on domain   3:     .20951 elapsed seconds
Timing for main: time 2016-02-05_12:32:00 on domain   3:     .20832 elapsed seconds
Timing for main: time 2016-02-05_12:31:40 on domain   4:     .25871 elapsed seconds
Timing for main: time 2016-02-05_12:32:00 on domain   4:     .25500 elapsed seconds
Timing for main: time 2016-02-05_12:32:00 on domain   2:    2.02248 elapsed seconds
Timing for main: time 2016-02-05_12:32:00 on domain   1:    7.22534 elapsed seconds
Timing for main: time 2016-02-05_12:32:13 on domain   3:     .23295 elapsed seconds
Timing for main: time 2016-02-05_12:32:26 on domain   3:     .20969 elapsed seconds
Timing for main: time 2016-02-05_12:32:40 on domain   3:     .20930 elapsed seconds
Timing for main: time 2016-02-05_12:32:20 on domain   4:     .25920 elapsed seconds
Timing for main: time 2016-02-05_12:32:40 on domain   4:     .25518 elapsed seconds
Timing for main: time 2016-02-05_12:32:40 on domain   2:    2.02391 elapsed seconds
Timing for main: time 2016-02-05_12:32:53 on domain   3:     .23366 elapsed seconds
Timing for main: time 2016-02-05_12:33:06 on domain   3:     .20868 elapsed seconds
Timing for main: time 2016-02-05_12:33:20 on domain   3:     .20881 elapsed seconds
Timing for main: time 2016-02-05_12:33:00 on domain   4:     .25954 elapsed seconds
Timing for main: time 2016-02-05_12:33:20 on domain   4:     .25498 elapsed seconds
Timing for main: time 2016-02-05_12:33:20 on domain   2:    2.01265 elapsed seconds
Timing for main: time 2016-02-05_12:33:33 on domain   3:     .23364 elapsed seconds
Timing for main: time 2016-02-05_12:33:46 on domain   3:     .20906 elapsed seconds
Timing for main: time 2016-02-05_12:34:00 on domain   3:     .21120 elapsed seconds
Timing for main: time 2016-02-05_12:33:40 on domain   4:     .26021 elapsed seconds
Timing for main: time 2016-02-05_12:34:00 on domain   4:     .25648 elapsed seconds
Timing for main: time 2016-02-05_12:34:00 on domain   2:    2.01624 elapsed seconds
Timing for main: time 2016-02-05_12:34:00 on domain   1:    6.47839 elapsed seconds
Timing for main: time 2016-02-05_12:34:13 on domain   3:     .23597 elapsed seconds
Timing for main: time 2016-02-05_12:34:26 on domain   3:     .20849 elapsed seconds
Timing for main: time 2016-02-05_12:34:40 on domain   3:     .20998 elapsed seconds
Timing for main: time 2016-02-05_12:34:20 on domain   4:     .26003 elapsed seconds
Timing for main: time 2016-02-05_12:34:40 on domain   4:     .25625 elapsed seconds
Timing for main: time 2016-02-05_12:34:40 on domain   2:    2.02772 elapsed seconds
Timing for main: time 2016-02-05_12:34:53 on domain   3:     .23421 elapsed seconds
Timing for main: time 2016-02-05_12:35:06 on domain   3:     .20896 elapsed seconds
Timing for main: time 2016-02-05_12:35:20 on domain   3:     .20982 elapsed seconds
Timing for main: time 2016-02-05_12:35:00 on domain   4:     .26961 elapsed seconds
Timing for main: time 2016-02-05_12:35:20 on domain   4:     .25665 elapsed seconds
Timing for main: time 2016-02-05_12:35:20 on domain   2:    2.02370 elapsed seconds
Timing for main: time 2016-02-05_12:35:33 on domain   3:     .23438 elapsed seconds
Timing for main: time 2016-02-05_12:35:46 on domain   3:     .22232 elapsed seconds
Timing for main: time 2016-02-05_12:36:00 on domain   3:     .20922 elapsed seconds
Timing for main: time 2016-02-05_12:35:40 on domain   4:     .25911 elapsed seconds
Timing for main: time 2016-02-05_12:36:00 on domain   4:     .25596 elapsed seconds
Timing for main: time 2016-02-05_12:36:00 on domain   2:    2.02892 elapsed seconds
Timing for main: time 2016-02-05_12:36:00 on domain   1:    6.50956 elapsed seconds
Timing for main: time 2016-02-05_12:36:13 on domain   3:     .23395 elapsed seconds
Timing for main: time 2016-02-05_12:36:26 on domain   3:     .20935 elapsed seconds
Timing for main: time 2016-02-05_12:36:40 on domain   3:     .20996 elapsed seconds
Timing for main: time 2016-02-05_12:36:20 on domain   4:     .25873 elapsed seconds
Timing for main: time 2016-02-05_12:36:40 on domain   4:     .25552 elapsed seconds
Timing for main: time 2016-02-05_12:36:40 on domain   2:    2.02553 elapsed seconds
Timing for main: time 2016-02-05_12:36:53 on domain   3:     .23491 elapsed seconds
Timing for main: time 2016-02-05_12:37:06 on domain   3:     .21065 elapsed seconds
Timing for main: time 2016-02-05_12:37:20 on domain   3:     .20912 elapsed seconds
Timing for main: time 2016-02-05_12:37:00 on domain   4:     .25979 elapsed seconds
Timing for main: time 2016-02-05_12:37:20 on domain   4:     .25502 elapsed seconds
Timing for main: time 2016-02-05_12:37:20 on domain   2:    2.02434 elapsed seconds
Timing for main: time 2016-02-05_12:37:33 on domain   3:     .24164 elapsed seconds
Timing for main: time 2016-02-05_12:37:46 on domain   3:     .20953 elapsed seconds
Timing for main: time 2016-02-05_12:38:00 on domain   3:     .20895 elapsed seconds
Timing for main: time 2016-02-05_12:37:40 on domain   4:     .26141 elapsed seconds
Timing for main: time 2016-02-05_12:38:00 on domain   4:     .25550 elapsed seconds
Timing for main: time 2016-02-05_12:38:00 on domain   2:    2.02337 elapsed seconds
Timing for main: time 2016-02-05_12:38:00 on domain   1:    6.49789 elapsed seconds
Timing for main: time 2016-02-05_12:38:13 on domain   3:     .23415 elapsed seconds
Timing for main: time 2016-02-05_12:38:26 on domain   3:     .20758 elapsed seconds
Timing for main: time 2016-02-05_12:38:40 on domain   3:     .21101 elapsed seconds
Timing for main: time 2016-02-05_12:38:20 on domain   4:     .25930 elapsed seconds
Timing for main: time 2016-02-05_12:38:40 on domain   4:     .25522 elapsed seconds
Timing for main: time 2016-02-05_12:38:40 on domain   2:    2.02573 elapsed seconds
Timing for main: time 2016-02-05_12:38:53 on domain   3:     .23423 elapsed seconds
Timing for main: time 2016-02-05_12:39:06 on domain   3:     .20933 elapsed seconds
Timing for main: time 2016-02-05_12:39:20 on domain   3:     .26672 elapsed seconds
Timing for main: time 2016-02-05_12:39:00 on domain   4:     .25908 elapsed seconds
Timing for main: time 2016-02-05_12:39:20 on domain   4:     .26006 elapsed seconds
Timing for main: time 2016-02-05_12:39:20 on domain   2:    2.12896 elapsed seconds
Timing for main: time 2016-02-05_12:39:33 on domain   3:     .23431 elapsed seconds
Timing for main: time 2016-02-05_12:39:46 on domain   3:     .21019 elapsed seconds
Timing for main: time 2016-02-05_12:40:00 on domain   3:     .20972 elapsed seconds
Timing for main: time 2016-02-05_12:39:40 on domain   4:     .25904 elapsed seconds
Timing for main: time 2016-02-05_12:40:00 on domain   4:     .26537 elapsed seconds
Timing for main: time 2016-02-05_12:40:00 on domain   2:    2.02532 elapsed seconds
Timing for main: time 2016-02-05_12:40:00 on domain   1:    6.60465 elapsed seconds
Timing for main: time 2016-02-05_12:40:13 on domain   3:     .23811 elapsed seconds
Timing for main: time 2016-02-05_12:40:26 on domain   3:     .20885 elapsed seconds
Timing for main: time 2016-02-05_12:40:40 on domain   3:     .20968 elapsed seconds
Timing for main: time 2016-02-05_12:40:20 on domain   4:     .25985 elapsed seconds
Timing for main: time 2016-02-05_12:40:40 on domain   4:     .25560 elapsed seconds
Timing for main: time 2016-02-05_12:40:40 on domain   2:    2.03067 elapsed seconds
Timing for main: time 2016-02-05_12:40:53 on domain   3:     .24172 elapsed seconds
Timing for main: time 2016-02-05_12:41:06 on domain   3:     .20880 elapsed seconds
Timing for main: time 2016-02-05_12:41:20 on domain   3:     .21021 elapsed seconds
Timing for main: time 2016-02-05_12:41:00 on domain   4:     .25999 elapsed seconds
Timing for main: time 2016-02-05_12:41:20 on domain   4:     .25510 elapsed seconds
Timing for main: time 2016-02-05_12:41:20 on domain   2:    2.02267 elapsed seconds
Timing for main: time 2016-02-05_12:41:33 on domain   3:     .23272 elapsed seconds
Timing for main: time 2016-02-05_12:41:46 on domain   3:     .20949 elapsed seconds
Timing for main: time 2016-02-05_12:42:00 on domain   3:     .20883 elapsed seconds
Timing for main: time 2016-02-05_12:41:40 on domain   4:     .25970 elapsed seconds
Timing for main: time 2016-02-05_12:42:00 on domain   4:     .25519 elapsed seconds
Timing for main: time 2016-02-05_12:42:00 on domain   2:    2.01296 elapsed seconds
Timing for main: time 2016-02-05_12:42:00 on domain   1:    6.49548 elapsed seconds
Timing for main: time 2016-02-05_12:42:13 on domain   3:     .23318 elapsed seconds
Timing for main: time 2016-02-05_12:42:26 on domain   3:     .20862 elapsed seconds
Timing for main: time 2016-02-05_12:42:40 on domain   3:     .20905 elapsed seconds
Timing for main: time 2016-02-05_12:42:20 on domain   4:     .25990 elapsed seconds
Timing for main: time 2016-02-05_12:42:40 on domain   4:     .25519 elapsed seconds
Timing for main: time 2016-02-05_12:42:40 on domain   2:    2.03627 elapsed seconds
Timing for main: time 2016-02-05_12:42:53 on domain   3:     .23116 elapsed seconds
Timing for main: time 2016-02-05_12:43:06 on domain   3:     .20936 elapsed seconds
Timing for main: time 2016-02-05_12:43:20 on domain   3:     .21069 elapsed seconds
Timing for main: time 2016-02-05_12:43:00 on domain   4:     .25923 elapsed seconds
Timing for main: time 2016-02-05_12:43:20 on domain   4:     .25498 elapsed seconds
Timing for main: time 2016-02-05_12:43:20 on domain   2:    2.01447 elapsed seconds
Timing for main: time 2016-02-05_12:43:33 on domain   3:     .23302 elapsed seconds
Timing for main: time 2016-02-05_12:43:46 on domain   3:     .20836 elapsed seconds
Timing for main: time 2016-02-05_12:44:00 on domain   3:     .20931 elapsed seconds
Timing for main: time 2016-02-05_12:43:40 on domain   4:     .25946 elapsed seconds
Timing for main: time 2016-02-05_12:44:00 on domain   4:     .25621 elapsed seconds
Timing for main: time 2016-02-05_12:44:00 on domain   2:    2.01768 elapsed seconds
Timing for main: time 2016-02-05_12:44:00 on domain   1:    6.49211 elapsed seconds
Timing for main: time 2016-02-05_12:44:13 on domain   3:     .23207 elapsed seconds
Timing for main: time 2016-02-05_12:44:26 on domain   3:     .21213 elapsed seconds
Timing for main: time 2016-02-05_12:44:40 on domain   3:     .20714 elapsed seconds
Timing for main: time 2016-02-05_12:44:20 on domain   4:     .25932 elapsed seconds
Timing for main: time 2016-02-05_12:44:40 on domain   4:     .25551 elapsed seconds
Timing for main: time 2016-02-05_12:44:40 on domain   2:    2.02689 elapsed seconds
Timing for main: time 2016-02-05_12:44:53 on domain   3:     .23219 elapsed seconds
Timing for main: time 2016-02-05_12:45:06 on domain   3:     .20837 elapsed seconds
Timing for main: time 2016-02-05_12:45:20 on domain   3:     .21879 elapsed seconds
Timing for main: time 2016-02-05_12:45:00 on domain   4:     .27272 elapsed seconds
Timing for main: time 2016-02-05_12:45:20 on domain   4:     .25558 elapsed seconds
Timing for main: time 2016-02-05_12:45:20 on domain   2:    2.03952 elapsed seconds
Timing for main: time 2016-02-05_12:45:33 on domain   3:     .23254 elapsed seconds
Timing for main: time 2016-02-05_12:45:46 on domain   3:     .20962 elapsed seconds
Timing for main: time 2016-02-05_12:46:00 on domain   3:     .21726 elapsed seconds
Timing for main: time 2016-02-05_12:45:40 on domain   4:     .25994 elapsed seconds
Timing for main: time 2016-02-05_12:46:00 on domain   4:     .25523 elapsed seconds
Timing for main: time 2016-02-05_12:46:00 on domain   2:    2.02352 elapsed seconds
Timing for main: time 2016-02-05_12:46:00 on domain   1:    6.51396 elapsed seconds
Timing for main: time 2016-02-05_12:46:13 on domain   3:     .23079 elapsed seconds
Timing for main: time 2016-02-05_12:46:26 on domain   3:     .20891 elapsed seconds
Timing for main: time 2016-02-05_12:46:40 on domain   3:     .20950 elapsed seconds
Timing for main: time 2016-02-05_12:46:20 on domain   4:     .25901 elapsed seconds
Timing for main: time 2016-02-05_12:46:40 on domain   4:     .25660 elapsed seconds
Timing for main: time 2016-02-05_12:46:40 on domain   2:    2.02702 elapsed seconds
Timing for main: time 2016-02-05_12:46:53 on domain   3:     .23277 elapsed seconds
Timing for main: time 2016-02-05_12:47:06 on domain   3:     .20723 elapsed seconds
Timing for main: time 2016-02-05_12:47:20 on domain   3:     .23417 elapsed seconds
Timing for main: time 2016-02-05_12:47:00 on domain   4:     .25875 elapsed seconds
Timing for main: time 2016-02-05_12:47:20 on domain   4:     .25528 elapsed seconds
Timing for main: time 2016-02-05_12:47:20 on domain   2:    2.03526 elapsed seconds
Timing for main: time 2016-02-05_12:47:33 on domain   3:     .23196 elapsed seconds
Timing for main: time 2016-02-05_12:47:46 on domain   3:     .21082 elapsed seconds
Timing for main: time 2016-02-05_12:48:00 on domain   3:     .20853 elapsed seconds
Timing for main: time 2016-02-05_12:47:40 on domain   4:     .25907 elapsed seconds
Timing for main: time 2016-02-05_12:48:00 on domain   4:     .25536 elapsed seconds
Timing for main: time 2016-02-05_12:48:00 on domain   2:    2.02468 elapsed seconds
Timing for main: time 2016-02-05_12:48:00 on domain   1:    6.51655 elapsed seconds
Timing for main: time 2016-02-05_12:48:13 on domain   3:     .23176 elapsed seconds
Timing for main: time 2016-02-05_12:48:26 on domain   3:     .20962 elapsed seconds
Timing for main: time 2016-02-05_12:48:40 on domain   3:     .20941 elapsed seconds
Timing for main: time 2016-02-05_12:48:20 on domain   4:     .25915 elapsed seconds
Timing for main: time 2016-02-05_12:48:40 on domain   4:     .25519 elapsed seconds
Timing for main: time 2016-02-05_12:48:40 on domain   2:    2.02571 elapsed seconds
Timing for main: time 2016-02-05_12:48:53 on domain   3:     .23262 elapsed seconds
Timing for main: time 2016-02-05_12:49:06 on domain   3:     .21351 elapsed seconds
Timing for main: time 2016-02-05_12:49:20 on domain   3:     .20691 elapsed seconds
Timing for main: time 2016-02-05_12:49:00 on domain   4:     .26049 elapsed seconds
Timing for main: time 2016-02-05_12:49:20 on domain   4:     .25522 elapsed seconds
Timing for main: time 2016-02-05_12:49:20 on domain   2:    2.01650 elapsed seconds
Timing for main: time 2016-02-05_12:49:33 on domain   3:     .23533 elapsed seconds
Timing for main: time 2016-02-05_12:49:46 on domain   3:     .20933 elapsed seconds
Timing for main: time 2016-02-05_12:50:00 on domain   3:     .20901 elapsed seconds
Timing for main: time 2016-02-05_12:49:40 on domain   4:     .25909 elapsed seconds
Timing for main: time 2016-02-05_12:50:00 on domain   4:     .26547 elapsed seconds
Timing for main: time 2016-02-05_12:50:00 on domain   2:    2.02855 elapsed seconds
Timing for main: time 2016-02-05_12:50:00 on domain   1:    6.49505 elapsed seconds
Timing for main: time 2016-02-05_12:50:13 on domain   3:     .23145 elapsed seconds
Timing for main: time 2016-02-05_12:50:26 on domain   3:     .20965 elapsed seconds
Timing for main: time 2016-02-05_12:50:40 on domain   3:     .20863 elapsed seconds
Timing for main: time 2016-02-05_12:50:20 on domain   4:     .25982 elapsed seconds
Timing for main: time 2016-02-05_12:50:40 on domain   4:     .25641 elapsed seconds
Timing for main: time 2016-02-05_12:50:40 on domain   2:    2.02743 elapsed seconds
Timing for main: time 2016-02-05_12:50:53 on domain   3:     .23131 elapsed seconds
Timing for main: time 2016-02-05_12:51:06 on domain   3:     .21761 elapsed seconds
Timing for main: time 2016-02-05_12:51:20 on domain   3:     .20879 elapsed seconds
Timing for main: time 2016-02-05_12:51:00 on domain   4:     .25967 elapsed seconds
Timing for main: time 2016-02-05_12:51:20 on domain   4:     .25622 elapsed seconds
Timing for main: time 2016-02-05_12:51:20 on domain   2:    2.02354 elapsed seconds
Timing for main: time 2016-02-05_12:51:33 on domain   3:     .23092 elapsed seconds
Timing for main: time 2016-02-05_12:51:46 on domain   3:     .20957 elapsed seconds
Timing for main: time 2016-02-05_12:52:00 on domain   3:     .20941 elapsed seconds
Timing for main: time 2016-02-05_12:51:40 on domain   4:     .25968 elapsed seconds
Timing for main: time 2016-02-05_12:52:00 on domain   4:     .25525 elapsed seconds
Timing for main: time 2016-02-05_12:52:00 on domain   2:    2.01541 elapsed seconds
Timing for main: time 2016-02-05_12:52:00 on domain   1:    6.48980 elapsed seconds
Timing for main: time 2016-02-05_12:52:13 on domain   3:     .23114 elapsed seconds
Timing for main: time 2016-02-05_12:52:26 on domain   3:     .21026 elapsed seconds
Timing for main: time 2016-02-05_12:52:40 on domain   3:     .21155 elapsed seconds
Timing for main: time 2016-02-05_12:52:20 on domain   4:     .25998 elapsed seconds
Timing for main: time 2016-02-05_12:52:40 on domain   4:     .24953 elapsed seconds
Timing for main: time 2016-02-05_12:52:40 on domain   2:    2.02130 elapsed seconds
Timing for main: time 2016-02-05_12:52:53 on domain   3:     .23173 elapsed seconds
Timing for main: time 2016-02-05_12:53:06 on domain   3:     .21005 elapsed seconds
Timing for main: time 2016-02-05_12:53:20 on domain   3:     .20956 elapsed seconds
Timing for main: time 2016-02-05_12:53:00 on domain   4:     .25918 elapsed seconds
Timing for main: time 2016-02-05_12:53:20 on domain   4:     .25612 elapsed seconds
Timing for main: time 2016-02-05_12:53:20 on domain   2:    2.14367 elapsed seconds
Timing for main: time 2016-02-05_12:53:33 on domain   3:     .23365 elapsed seconds
Timing for main: time 2016-02-05_12:53:46 on domain   3:     .20978 elapsed seconds
Timing for main: time 2016-02-05_12:54:00 on domain   3:     .20909 elapsed seconds
Timing for main: time 2016-02-05_12:53:40 on domain   4:     .25800 elapsed seconds
Timing for main: time 2016-02-05_12:54:00 on domain   4:     .25636 elapsed seconds
Timing for main: time 2016-02-05_12:54:00 on domain   2:    2.01641 elapsed seconds
Timing for main: time 2016-02-05_12:54:00 on domain   1:    6.61144 elapsed seconds
Timing for main: time 2016-02-05_12:54:13 on domain   3:     .23651 elapsed seconds
Timing for main: time 2016-02-05_12:54:26 on domain   3:     .20852 elapsed seconds
Timing for main: time 2016-02-05_12:54:40 on domain   3:     .21092 elapsed seconds
Timing for main: time 2016-02-05_12:54:20 on domain   4:     .25869 elapsed seconds
Timing for main: time 2016-02-05_12:54:40 on domain   4:     .25627 elapsed seconds
Timing for main: time 2016-02-05_12:54:40 on domain   2:    2.03070 elapsed seconds
Timing for main: time 2016-02-05_12:54:53 on domain   3:     .23257 elapsed seconds
Timing for main: time 2016-02-05_12:55:06 on domain   3:     .21030 elapsed seconds
Timing for main: time 2016-02-05_12:55:20 on domain   3:     .21039 elapsed seconds
Timing for main: time 2016-02-05_12:55:00 on domain   4:     .26900 elapsed seconds
Timing for main: time 2016-02-05_12:55:20 on domain   4:     .25575 elapsed seconds
Timing for main: time 2016-02-05_12:55:20 on domain   2:    2.02671 elapsed seconds
Timing for main: time 2016-02-05_12:55:33 on domain   3:     .23377 elapsed seconds
Timing for main: time 2016-02-05_12:55:46 on domain   3:     .20991 elapsed seconds
Timing for main: time 2016-02-05_12:56:00 on domain   3:     .20888 elapsed seconds
Timing for main: time 2016-02-05_12:55:40 on domain   4:     .25936 elapsed seconds
Timing for main: time 2016-02-05_12:56:00 on domain   4:     .25592 elapsed seconds
Timing for main: time 2016-02-05_12:56:00 on domain   2:    2.01704 elapsed seconds
Timing for main: time 2016-02-05_12:56:00 on domain   1:    6.50055 elapsed seconds
Timing for main: time 2016-02-05_12:56:13 on domain   3:     .24190 elapsed seconds
Timing for main: time 2016-02-05_12:56:26 on domain   3:     .20953 elapsed seconds
Timing for main: time 2016-02-05_12:56:40 on domain   3:     .21103 elapsed seconds
Timing for main: time 2016-02-05_12:56:20 on domain   4:     .26020 elapsed seconds
Timing for main: time 2016-02-05_12:56:40 on domain   4:     .25511 elapsed seconds
Timing for main: time 2016-02-05_12:56:40 on domain   2:    2.03488 elapsed seconds
Timing for main: time 2016-02-05_12:56:53 on domain   3:     .23328 elapsed seconds
Timing for main: time 2016-02-05_12:57:06 on domain   3:     .21254 elapsed seconds
Timing for main: time 2016-02-05_12:57:20 on domain   3:     .20979 elapsed seconds
Timing for main: time 2016-02-05_12:57:00 on domain   4:     .25989 elapsed seconds
Timing for main: time 2016-02-05_12:57:20 on domain   4:     .25540 elapsed seconds
Timing for main: time 2016-02-05_12:57:20 on domain   2:    2.02171 elapsed seconds
Timing for main: time 2016-02-05_12:57:33 on domain   3:     .23344 elapsed seconds
Timing for main: time 2016-02-05_12:57:46 on domain   3:     .25718 elapsed seconds
Timing for main: time 2016-02-05_12:58:00 on domain   3:     .27188 elapsed seconds
Timing for main: time 2016-02-05_12:57:40 on domain   4:     .26024 elapsed seconds
Timing for main: time 2016-02-05_12:58:00 on domain   4:     .25495 elapsed seconds
Timing for main: time 2016-02-05_12:58:00 on domain   2:    2.11740 elapsed seconds
Timing for main: time 2016-02-05_12:58:00 on domain   1:    6.59751 elapsed seconds
  photolysis_driver: called for domain  1
Timing for main: time 2016-02-05_12:58:13 on domain   3:     .23277 elapsed seconds
Timing for main: time 2016-02-05_12:58:26 on domain   3:     .21058 elapsed seconds
Timing for main: time 2016-02-05_12:58:40 on domain   3:     .20955 elapsed seconds
Timing for main: time 2016-02-05_12:58:20 on domain   4:     .25912 elapsed seconds
Timing for main: time 2016-02-05_12:58:40 on domain   4:     .25480 elapsed seconds
Timing for main: time 2016-02-05_12:58:40 on domain   2:    2.03724 elapsed seconds
Timing for main: time 2016-02-05_12:58:53 on domain   3:     .23235 elapsed seconds
Timing for main: time 2016-02-05_12:59:06 on domain   3:     .21015 elapsed seconds
Timing for main: time 2016-02-05_12:59:20 on domain   3:     .20968 elapsed seconds
Timing for main: time 2016-02-05_12:59:00 on domain   4:     .25885 elapsed seconds
Timing for main: time 2016-02-05_12:59:20 on domain   4:     .25519 elapsed seconds
Timing for main: time 2016-02-05_12:59:20 on domain   2:    2.01570 elapsed seconds
  photolysis_driver: called for domain  2
Timing for main: time 2016-02-05_12:59:33 on domain   3:     .23323 elapsed seconds
Timing for main: time 2016-02-05_12:59:46 on domain   3:     .21038 elapsed seconds
  photolysis_driver: called for domain  3
Timing for main: time 2016-02-05_13:00:00 on domain   3:    1.02915 elapsed seconds
Timing for main: time 2016-02-05_12:59:40 on domain   4:     .25878 elapsed seconds
  photolysis_driver: called for domain  4
Timing for main: time 2016-02-05_13:00:00 on domain   4:    1.22859 elapsed seconds
Timing for main: time 2016-02-05_13:00:00 on domain   2:    4.82281 elapsed seconds
Timing for main: time 2016-02-05_13:00:00 on domain   1:    9.94029 elapsed seconds
Timing for Writing wrfout_d01_2016-02-05_13:00:00 for domain        1:    2.12785 elapsed seconds
  HOURLY EMISSIONS UPDATE TIME     3600.0        .0
 mediation_integrate: med_read_wrf_chem_emissions: Read emissions for time 2016-02-05_13:00:00
 **WARNING** Time in input file not being checked **WARNING**
Timing for Writing wrfout_d02_2016-02-05_13:00:00 for domain        2:    2.92367 elapsed seconds
Timing for Writing wrfout_d03_2016-02-05_13:00:00 for domain        3:    2.64324 elapsed seconds
Timing for main: time 2016-02-05_13:00:13 on domain   3:    3.26535 elapsed seconds
Timing for main: time 2016-02-05_13:00:26 on domain   3:     .20994 elapsed seconds
Timing for main: time 2016-02-05_13:00:40 on domain   3:     .20934 elapsed seconds
Timing for Writing wrfout_d04_2016-02-05_13:00:00 for domain        4:    2.89384 elapsed seconds
Timing for main: time 2016-02-05_13:00:20 on domain   4:    3.49457 elapsed seconds
Timing for main: time 2016-02-05_13:00:40 on domain   4:     .25610 elapsed seconds
Timing for main: time 2016-02-05_13:00:40 on domain   2:   11.57144 elapsed seconds
Timing for main: time 2016-02-05_13:00:53 on domain   3:     .23324 elapsed seconds
Timing for main: time 2016-02-05_13:01:06 on domain   3:     .20983 elapsed seconds
Timing for main: time 2016-02-05_13:01:20 on domain   3:     .21833 elapsed seconds
Timing for main: time 2016-02-05_13:01:00 on domain   4:     .25962 elapsed seconds
Timing for main: time 2016-02-05_13:01:20 on domain   4:     .25879 elapsed seconds
Timing for main: time 2016-02-05_13:01:20 on domain   2:    2.02757 elapsed seconds
Timing for main: time 2016-02-05_13:01:33 on domain   3:     .23408 elapsed seconds
Timing for main: time 2016-02-05_13:01:46 on domain   3:     .20983 elapsed seconds
Timing for main: time 2016-02-05_13:02:00 on domain   3:     .21061 elapsed seconds
Timing for main: time 2016-02-05_13:01:40 on domain   4:     .25881 elapsed seconds
Timing for main: time 2016-02-05_13:02:00 on domain   4:     .25539 elapsed seconds
Timing for main: time 2016-02-05_13:02:00 on domain   2:    2.01735 elapsed seconds
Timing for main: time 2016-02-05_13:02:00 on domain   1:   18.76451 elapsed seconds
Timing for main: time 2016-02-05_13:02:13 on domain   3:     .23400 elapsed seconds
Timing for main: time 2016-02-05_13:02:26 on domain   3:     .20903 elapsed seconds
Timing for main: time 2016-02-05_13:02:40 on domain   3:     .20909 elapsed seconds
Timing for main: time 2016-02-05_13:02:20 on domain   4:     .25942 elapsed seconds
Timing for main: time 2016-02-05_13:02:40 on domain   4:     .25631 elapsed seconds
Timing for main: time 2016-02-05_13:02:40 on domain   2:    2.02647 elapsed seconds
Timing for main: time 2016-02-05_13:02:53 on domain   3:     .23225 elapsed seconds
Timing for main: time 2016-02-05_13:03:06 on domain   3:     .21077 elapsed seconds
Timing for main: time 2016-02-05_13:03:20 on domain   3:     .21069 elapsed seconds
Timing for main: time 2016-02-05_13:03:00 on domain   4:     .27134 elapsed seconds
Timing for main: time 2016-02-05_13:03:20 on domain   4:     .25588 elapsed seconds
Timing for main: time 2016-02-05_13:03:20 on domain   2:    2.04261 elapsed seconds
Timing for main: time 2016-02-05_13:03:33 on domain   3:     .23068 elapsed seconds
Timing for main: time 2016-02-05_13:03:46 on domain   3:     .20990 elapsed seconds
Timing for main: time 2016-02-05_13:04:00 on domain   3:     .20872 elapsed seconds
Timing for main: time 2016-02-05_13:03:40 on domain   4:     .25959 elapsed seconds
Timing for main: time 2016-02-05_13:04:00 on domain   4:     .25569 elapsed seconds
Timing for main: time 2016-02-05_13:04:00 on domain   2:    2.02545 elapsed seconds
Timing for main: time 2016-02-05_13:04:00 on domain   1:    6.52021 elapsed seconds
Timing for main: time 2016-02-05_13:04:13 on domain   3:     .23159 elapsed seconds
Timing for main: time 2016-02-05_13:04:26 on domain   3:     .21253 elapsed seconds
Timing for main: time 2016-02-05_13:04:40 on domain   3:     .20943 elapsed seconds
Timing for main: time 2016-02-05_13:04:20 on domain   4:     .25967 elapsed seconds
Timing for main: time 2016-02-05_13:04:40 on domain   4:     .25556 elapsed seconds
Timing for main: time 2016-02-05_13:04:40 on domain   2:    2.02729 elapsed seconds
Timing for main: time 2016-02-05_13:04:53 on domain   3:     .23333 elapsed seconds
Timing for main: time 2016-02-05_13:05:06 on domain   3:     .21033 elapsed seconds
Timing for main: time 2016-02-05_13:05:20 on domain   3:     .20920 elapsed seconds
Timing for main: time 2016-02-05_13:05:00 on domain   4:     .26992 elapsed seconds
Timing for main: time 2016-02-05_13:05:20 on domain   4:     .25501 elapsed seconds
Timing for main: time 2016-02-05_13:05:20 on domain   2:    2.02521 elapsed seconds
Timing for main: time 2016-02-05_13:05:33 on domain   3:     .23338 elapsed seconds
Timing for main: time 2016-02-05_13:05:46 on domain   3:     .20860 elapsed seconds
Timing for main: time 2016-02-05_13:06:00 on domain   3:     .21462 elapsed seconds
Timing for main: time 2016-02-05_13:05:40 on domain   4:     .26020 elapsed seconds
Timing for main: time 2016-02-05_13:06:00 on domain   4:     .25498 elapsed seconds
Timing for main: time 2016-02-05_13:06:00 on domain   2:    2.01387 elapsed seconds
Timing for main: time 2016-02-05_13:06:00 on domain   1:    6.49607 elapsed seconds
Timing for main: time 2016-02-05_13:06:13 on domain   3:     .23453 elapsed seconds
Timing for main: time 2016-02-05_13:06:26 on domain   3:     .21801 elapsed seconds
Timing for main: time 2016-02-05_13:06:40 on domain   3:     .21027 elapsed seconds
Timing for main: time 2016-02-05_13:06:20 on domain   4:     .26085 elapsed seconds
Timing for main: time 2016-02-05_13:06:40 on domain   4:     .25559 elapsed seconds
Timing for main: time 2016-02-05_13:06:40 on domain   2:    2.03619 elapsed seconds
Timing for main: time 2016-02-05_13:06:53 on domain   3:     .23261 elapsed seconds
Timing for main: time 2016-02-05_13:07:06 on domain   3:     .21022 elapsed seconds
Timing for main: time 2016-02-05_13:07:20 on domain   3:     .20981 elapsed seconds
Timing for main: time 2016-02-05_13:07:00 on domain   4:     .26036 elapsed seconds
Timing for main: time 2016-02-05_13:07:20 on domain   4:     .25502 elapsed seconds
Timing for main: time 2016-02-05_13:07:20 on domain   2:    2.01447 elapsed seconds
Timing for main: time 2016-02-05_13:07:33 on domain   3:     .23550 elapsed seconds
Timing for main: time 2016-02-05_13:07:46 on domain   3:     .21348 elapsed seconds
Timing for main: time 2016-02-05_13:08:00 on domain   3:     .20909 elapsed seconds
Timing for main: time 2016-02-05_13:07:40 on domain   4:     .26026 elapsed seconds
Timing for main: time 2016-02-05_13:08:00 on domain   4:     .25790 elapsed seconds
Timing for main: time 2016-02-05_13:08:00 on domain   2:    2.02191 elapsed seconds
Timing for main: time 2016-02-05_13:08:00 on domain   1:    6.49630 elapsed seconds
Timing for main: time 2016-02-05_13:08:13 on domain   3:     .23388 elapsed seconds
Timing for main: time 2016-02-05_13:08:26 on domain   3:     .20961 elapsed seconds
Timing for main: time 2016-02-05_13:08:40 on domain   3:     .20935 elapsed seconds
Timing for main: time 2016-02-05_13:08:20 on domain   4:     .25703 elapsed seconds
Timing for main: time 2016-02-05_13:08:40 on domain   4:     .25567 elapsed seconds
Timing for main: time 2016-02-05_13:08:40 on domain   2:    2.03209 elapsed seconds
Timing for main: time 2016-02-05_13:08:53 on domain   3:     .23274 elapsed seconds
Timing for main: time 2016-02-05_13:09:06 on domain   3:     .20959 elapsed seconds
Timing for main: time 2016-02-05_13:09:20 on domain   3:     .20908 elapsed seconds
Timing for main: time 2016-02-05_13:09:00 on domain   4:     .25819 elapsed seconds
Timing for main: time 2016-02-05_13:09:20 on domain   4:     .25524 elapsed seconds
Timing for main: time 2016-02-05_13:09:20 on domain   2:    2.02305 elapsed seconds
Timing for main: time 2016-02-05_13:09:33 on domain   3:     .23392 elapsed seconds
Timing for main: time 2016-02-05_13:09:46 on domain   3:     .20929 elapsed seconds
Timing for main: time 2016-02-05_13:10:00 on domain   3:     .20896 elapsed seconds
Timing for main: time 2016-02-05_13:09:40 on domain   4:     .25827 elapsed seconds
Timing for main: time 2016-02-05_13:10:00 on domain   4:     .28927 elapsed seconds
Timing for main: time 2016-02-05_13:10:00 on domain   2:    2.04809 elapsed seconds
Timing for main: time 2016-02-05_13:10:00 on domain   1:    6.52651 elapsed seconds
Timing for main: time 2016-02-05_13:10:13 on domain   3:     .23308 elapsed seconds
Timing for main: time 2016-02-05_13:10:26 on domain   3:     .20860 elapsed seconds
Timing for main: time 2016-02-05_13:10:40 on domain   3:     .21067 elapsed seconds
Timing for main: time 2016-02-05_13:10:20 on domain   4:     .25784 elapsed seconds
Timing for main: time 2016-02-05_13:10:40 on domain   4:     .25558 elapsed seconds
Timing for main: time 2016-02-05_13:10:40 on domain   2:    2.02474 elapsed seconds
Timing for main: time 2016-02-05_13:10:53 on domain   3:     .23280 elapsed seconds
Timing for main: time 2016-02-05_13:11:06 on domain   3:     .23040 elapsed seconds
Timing for main: time 2016-02-05_13:11:20 on domain   3:     .27953 elapsed seconds
Timing for main: time 2016-02-05_13:11:00 on domain   4:     .25911 elapsed seconds
Timing for main: time 2016-02-05_13:11:20 on domain   4:     .25865 elapsed seconds
Timing for main: time 2016-02-05_13:11:20 on domain   2:    2.15325 elapsed seconds
Timing for main: time 2016-02-05_13:11:33 on domain   3:     .24181 elapsed seconds
Timing for main: time 2016-02-05_13:11:46 on domain   3:     .20989 elapsed seconds
Timing for main: time 2016-02-05_13:12:00 on domain   3:     .20801 elapsed seconds
Timing for main: time 2016-02-05_13:11:40 on domain   4:     .25901 elapsed seconds
Timing for main: time 2016-02-05_13:12:00 on domain   4:     .25501 elapsed seconds
Timing for main: time 2016-02-05_13:12:00 on domain   2:    2.07343 elapsed seconds
Timing for main: time 2016-02-05_13:12:00 on domain   1:    6.68041 elapsed seconds
Timing for main: time 2016-02-05_13:12:13 on domain   3:     .23812 elapsed seconds
Timing for main: time 2016-02-05_13:12:26 on domain   3:     .20880 elapsed seconds
Timing for main: time 2016-02-05_13:12:40 on domain   3:     .20990 elapsed seconds
Timing for main: time 2016-02-05_13:12:20 on domain   4:     .25927 elapsed seconds
Timing for main: time 2016-02-05_13:12:40 on domain   4:     .25547 elapsed seconds
Timing for main: time 2016-02-05_13:12:40 on domain   2:    2.03150 elapsed seconds
Timing for main: time 2016-02-05_13:12:53 on domain   3:     .23342 elapsed seconds
Timing for main: time 2016-02-05_13:13:06 on domain   3:     .20863 elapsed seconds
Timing for main: time 2016-02-05_13:13:20 on domain   3:     .20898 elapsed seconds
Timing for main: time 2016-02-05_13:13:00 on domain   4:     .25865 elapsed seconds
Timing for main: time 2016-02-05_13:13:20 on domain   4:     .25532 elapsed seconds
Timing for main: time 2016-02-05_13:13:20 on domain   2:    2.01300 elapsed seconds
Timing for main: time 2016-02-05_13:13:33 on domain   3:     .23387 elapsed seconds
Timing for main: time 2016-02-05_13:13:46 on domain   3:     .20907 elapsed seconds
Timing for main: time 2016-02-05_13:14:00 on domain   3:     .20968 elapsed seconds
Timing for main: time 2016-02-05_13:13:40 on domain   4:     .25981 elapsed seconds
Timing for main: time 2016-02-05_13:14:00 on domain   4:     .25472 elapsed seconds
Timing for main: time 2016-02-05_13:14:00 on domain   2:    2.01323 elapsed seconds
Timing for main: time 2016-02-05_13:14:00 on domain   1:    6.48221 elapsed seconds
Timing for main: time 2016-02-05_13:14:13 on domain   3:     .23541 elapsed seconds
Timing for main: time 2016-02-05_13:14:26 on domain   3:     .20912 elapsed seconds
Timing for main: time 2016-02-05_13:14:40 on domain   3:     .20921 elapsed seconds
Timing for main: time 2016-02-05_13:14:20 on domain   4:     .26026 elapsed seconds
Timing for main: time 2016-02-05_13:14:40 on domain   4:     .25493 elapsed seconds
Timing for main: time 2016-02-05_13:14:40 on domain   2:    2.03601 elapsed seconds
Timing for main: time 2016-02-05_13:14:53 on domain   3:     .23439 elapsed seconds
Timing for main: time 2016-02-05_13:15:06 on domain   3:     .20859 elapsed seconds
Timing for main: time 2016-02-05_13:15:20 on domain   3:     .21271 elapsed seconds
Timing for main: time 2016-02-05_13:15:00 on domain   4:     .26907 elapsed seconds
Timing for main: time 2016-02-05_13:15:20 on domain   4:     .25389 elapsed seconds
Timing for main: time 2016-02-05_13:15:20 on domain   2:    2.02476 elapsed seconds
Timing for main: time 2016-02-05_13:15:33 on domain   3:     .23377 elapsed seconds
Timing for main: time 2016-02-05_13:15:46 on domain   3:     .20866 elapsed seconds
Timing for main: time 2016-02-05_13:16:00 on domain   3:     .20943 elapsed seconds
Timing for main: time 2016-02-05_13:15:40 on domain   4:     .25940 elapsed seconds
Timing for main: time 2016-02-05_13:16:00 on domain   4:     .25359 elapsed seconds
Timing for main: time 2016-02-05_13:16:00 on domain   2:    2.01235 elapsed seconds
Timing for main: time 2016-02-05_13:16:00 on domain   1:    6.49431 elapsed seconds
Timing for main: time 2016-02-05_13:16:13 on domain   3:     .23305 elapsed seconds
Timing for main: time 2016-02-05_13:16:26 on domain   3:     .21162 elapsed seconds
Timing for main: time 2016-02-05_13:16:40 on domain   3:     .21906 elapsed seconds
Timing for main: time 2016-02-05_13:16:20 on domain   4:     .25864 elapsed seconds
Timing for main: time 2016-02-05_13:16:40 on domain   4:     .25364 elapsed seconds
Timing for main: time 2016-02-05_13:16:40 on domain   2:    2.03286 elapsed seconds
Timing for main: time 2016-02-05_13:16:53 on domain   3:     .23276 elapsed seconds
Timing for main: time 2016-02-05_13:17:06 on domain   3:     .21211 elapsed seconds
Timing for main: time 2016-02-05_13:17:20 on domain   3:     .20980 elapsed seconds
Timing for main: time 2016-02-05_13:17:00 on domain   4:     .25937 elapsed seconds
Timing for main: time 2016-02-05_13:17:20 on domain   4:     .25364 elapsed seconds
Timing for main: time 2016-02-05_13:17:20 on domain   2:    2.01559 elapsed seconds
Timing for main: time 2016-02-05_13:17:33 on domain   3:     .23248 elapsed seconds
[...]
Timing for main: time 2016-02-05_17:36:00 on domain   2:    2.03013 elapsed seconds
Timing for main: time 2016-02-05_17:36:00 on domain   1:    6.52223 elapsed seconds
Timing for main: time 2016-02-05_17:36:13 on domain   3:     .23629 elapsed seconds
Timing for main: time 2016-02-05_17:36:26 on domain   3:     .21004 elapsed seconds
Timing for main: time 2016-02-05_17:36:40 on domain   3:     .21047 elapsed seconds
Timing for main: time 2016-02-05_17:36:20 on domain   4:     .25791 elapsed seconds
Timing for main: time 2016-02-05_17:36:40 on domain   4:     .25550 elapsed seconds
Timing for main: time 2016-02-05_17:36:40 on domain   2:    2.03335 elapsed seconds
Timing for main: time 2016-02-05_17:36:53 on domain   3:     .23521 elapsed seconds
Timing for main: time 2016-02-05_17:37:06 on domain   3:     .21086 elapsed seconds
Timing for main: time 2016-02-05_17:37:20 on domain   3:     .21820 elapsed seconds
Timing for main: time 2016-02-05_17:37:00 on domain   4:     .25960 elapsed seconds
Timing for main: time 2016-02-05_17:37:20 on domain   4:     .25542 elapsed seconds
Timing for main: time 2016-02-05_17:37:20 on domain   2:    2.03146 elapsed seconds
Timing for main: time 2016-02-05_17:37:33 on domain   3:     .23450 elapsed seconds
Timing for main: time 2016-02-05_17:37:46 on domain   3:     .21541 elapsed seconds
Timing for main: time 2016-02-05_17:38:00 on domain   3:     .24149 elapsed seconds
Timing for main: time 2016-02-05_17:37:40 on domain   4:     .25992 elapsed seconds
Timing for main: time 2016-02-05_17:38:00 on domain   4:     .25548 elapsed seconds
Timing for main: time 2016-02-05_17:38:00 on domain   2:    2.05743 elapsed seconds
Timing for main: time 2016-02-05_17:38:00 on domain   1:    6.60391 elapsed seconds
Timing for main: time 2016-02-05_17:38:13 on domain   3:     .23550 elapsed seconds
Timing for main: time 2016-02-05_17:38:26 on domain   3:     .20863 elapsed seconds
Timing for main: time 2016-02-05_17:38:40 on domain   3:     .21081 elapsed seconds
Timing for main: time 2016-02-05_17:38:20 on domain   4:     .26019 elapsed seconds
Timing for main: time 2016-02-05_17:38:40 on domain   4:     .25525 elapsed seconds
Timing for main: time 2016-02-05_17:38:40 on domain   2:    2.02921 elapsed seconds
Timing for main: time 2016-02-05_17:38:53 on domain   3:     .23557 elapsed seconds
Timing for main: time 2016-02-05_17:39:06 on domain   3:     .21024 elapsed seconds
Timing for main: time 2016-02-05_17:39:20 on domain   3:     .20968 elapsed seconds
Timing for main: time 2016-02-05_17:39:00 on domain   4:     .25922 elapsed seconds
Timing for main: time 2016-02-05_17:39:20 on domain   4:     .25607 elapsed seconds
Timing for main: time 2016-02-05_17:39:20 on domain   2:    2.02208 elapsed seconds
Timing for main: time 2016-02-05_17:39:33 on domain   3:     .23515 elapsed seconds
Timing for main: time 2016-02-05_17:39:46 on domain   3:     .21259 elapsed seconds
Timing for main: time 2016-02-05_17:40:00 on domain   3:     .21042 elapsed seconds
Timing for main: time 2016-02-05_17:39:40 on domain   4:     .25864 elapsed seconds
Timing for main: time 2016-02-05_17:40:00 on domain   4:     .26571 elapsed seconds
Timing for main: time 2016-02-05_17:40:00 on domain   2:    2.03021 elapsed seconds
Timing for main: time 2016-02-05_17:40:00 on domain   1:    6.50554 elapsed seconds
Timing for main: time 2016-02-05_17:40:13 on domain   3:     .23675 elapsed seconds
Timing for main: time 2016-02-05_17:40:26 on domain   3:     .20977 elapsed seconds
Timing for main: time 2016-02-05_17:40:40 on domain   3:     .21014 elapsed seconds
Timing for main: time 2016-02-05_17:40:20 on domain   4:     .25856 elapsed seconds
Timing for main: time 2016-02-05_17:40:40 on domain   4:     .25574 elapsed seconds
Timing for main: time 2016-02-05_17:40:40 on domain   2:    2.02358 elapsed seconds
Timing for main: time 2016-02-05_17:40:53 on domain   3:     .23690 elapsed seconds
Timing for main: time 2016-02-05_17:41:06 on domain   3:     .20875 elapsed seconds
Timing for main: time 2016-02-05_17:41:20 on domain   3:     .20985 elapsed seconds
Timing for main: time 2016-02-05_17:41:00 on domain   4:     .25826 elapsed seconds
Timing for main: time 2016-02-05_17:41:20 on domain   4:     .25522 elapsed seconds
Timing for main: time 2016-02-05_17:41:20 on domain   2:    2.03075 elapsed seconds
Timing for main: time 2016-02-05_17:41:33 on domain   3:     .23591 elapsed seconds
Timing for main: time 2016-02-05_17:41:46 on domain   3:     .21035 elapsed seconds
Timing for main: time 2016-02-05_17:42:00 on domain   3:     .20962 elapsed seconds
Timing for main: time 2016-02-05_17:41:40 on domain   4:     .25929 elapsed seconds
Timing for main: time 2016-02-05_17:42:00 on domain   4:     .25563 elapsed seconds
Timing for main: time 2016-02-05_17:42:00 on domain   2:    2.01889 elapsed seconds
Timing for main: time 2016-02-05_17:42:00 on domain   1:    6.50363 elapsed seconds
Timing for main: time 2016-02-05_17:42:13 on domain   3:     .23533 elapsed seconds
Timing for main: time 2016-02-05_17:42:26 on domain   3:     .21849 elapsed seconds
Timing for main: time 2016-02-05_17:42:40 on domain   3:     .21165 elapsed seconds
Timing for main: time 2016-02-05_17:42:20 on domain   4:     .31245 elapsed seconds
Timing for main: time 2016-02-05_17:42:40 on domain   4:     .29774 elapsed seconds
Timing for main: time 2016-02-05_17:42:40 on domain   2:    2.13515 elapsed seconds
Timing for main: time 2016-02-05_17:42:53 on domain   3:     .23615 elapsed seconds
Timing for main: time 2016-02-05_17:43:06 on domain   3:     .20988 elapsed seconds
Timing for main: time 2016-02-05_17:43:20 on domain   3:     .21025 elapsed seconds
Timing for main: time 2016-02-05_17:43:00 on domain   4:     .25869 elapsed seconds
Timing for main: time 2016-02-05_17:43:20 on domain   4:     .25580 elapsed seconds
Timing for main: time 2016-02-05_17:43:20 on domain   2:    2.01492 elapsed seconds
Timing for main: time 2016-02-05_17:43:33 on domain   3:     .23595 elapsed seconds
Timing for main: time 2016-02-05_17:43:46 on domain   3:     .21277 elapsed seconds
Timing for main: time 2016-02-05_17:44:00 on domain   3:     .21234 elapsed seconds
Timing for main: time 2016-02-05_17:43:40 on domain   4:     .25891 elapsed seconds
Timing for main: time 2016-02-05_17:44:00 on domain   4:     .25567 elapsed seconds
Timing for main: time 2016-02-05_17:44:00 on domain   2:    2.02210 elapsed seconds
Timing for main: time 2016-02-05_17:44:00 on domain   1:    6.59699 elapsed seconds
Timing for main: time 2016-02-05_17:44:13 on domain   3:     .23650 elapsed seconds
Timing for main: time 2016-02-05_17:44:26 on domain   3:     .21045 elapsed seconds
Timing for main: time 2016-02-05_17:44:40 on domain   3:     .21027 elapsed seconds
Timing for main: time 2016-02-05_17:44:20 on domain   4:     .25872 elapsed seconds
Timing for main: time 2016-02-05_17:44:40 on domain   4:     .25592 elapsed seconds
Timing for main: time 2016-02-05_17:44:40 on domain   2:    2.03007 elapsed seconds
Timing for main: time 2016-02-05_17:44:53 on domain   3:     .23644 elapsed seconds
Timing for main: time 2016-02-05_17:45:06 on domain   3:     .21092 elapsed seconds
Timing for main: time 2016-02-05_17:45:20 on domain   3:     .21015 elapsed seconds
Timing for main: time 2016-02-05_17:45:00 on domain   4:     .26913 elapsed seconds
Timing for main: time 2016-02-05_17:45:20 on domain   4:     .25679 elapsed seconds
Timing for main: time 2016-02-05_17:45:20 on domain   2:    2.03312 elapsed seconds
Timing for main: time 2016-02-05_17:45:33 on domain   3:     .23536 elapsed seconds
Timing for main: time 2016-02-05_17:45:46 on domain   3:     .21107 elapsed seconds
Timing for main: time 2016-02-05_17:46:00 on domain   3:     .20973 elapsed seconds
Timing for main: time 2016-02-05_17:45:40 on domain   4:     .25794 elapsed seconds
Timing for main: time 2016-02-05_17:46:00 on domain   4:     .25609 elapsed seconds
Timing for main: time 2016-02-05_17:46:00 on domain   2:    2.01948 elapsed seconds
Timing for main: time 2016-02-05_17:46:00 on domain   1:    6.50666 elapsed seconds
Timing for main: time 2016-02-05_17:46:13 on domain   3:     .23444 elapsed seconds
Timing for main: time 2016-02-05_17:46:26 on domain   3:     .21052 elapsed seconds
Timing for main: time 2016-02-05_17:46:40 on domain   3:     .21069 elapsed seconds
Timing for main: time 2016-02-05_17:46:20 on domain   4:     .25839 elapsed seconds
Timing for main: time 2016-02-05_17:46:40 on domain   4:     .25571 elapsed seconds
Timing for main: time 2016-02-05_17:46:40 on domain   2:    2.03810 elapsed seconds
Timing for main: time 2016-02-05_17:46:53 on domain   3:     .23441 elapsed seconds
Timing for main: time 2016-02-05_17:47:06 on domain   3:     .21095 elapsed seconds
Timing for main: time 2016-02-05_17:47:20 on domain   3:     .21086 elapsed seconds
Timing for main: time 2016-02-05_17:47:00 on domain   4:     .25778 elapsed seconds
Timing for main: time 2016-02-05_17:47:20 on domain   4:     .25584 elapsed seconds
Timing for main: time 2016-02-05_17:47:20 on domain   2:    2.01910 elapsed seconds
Timing for main: time 2016-02-05_17:47:33 on domain   3:     .24308 elapsed seconds
Timing for main: time 2016-02-05_17:47:46 on domain   3:     .21043 elapsed seconds
Timing for main: time 2016-02-05_17:48:00 on domain   3:     .21042 elapsed seconds
Timing for main: time 2016-02-05_17:47:40 on domain   4:     .25787 elapsed seconds
Timing for main: time 2016-02-05_17:48:00 on domain   4:     .25909 elapsed seconds
Timing for main: time 2016-02-05_17:48:00 on domain   2:    2.03418 elapsed seconds
Timing for main: time 2016-02-05_17:48:00 on domain   1:    6.52267 elapsed seconds
Timing for main: time 2016-02-05_17:48:13 on domain   3:     .23540 elapsed seconds
Timing for main: time 2016-02-05_17:48:26 on domain   3:     .21047 elapsed seconds
Timing for main: time 2016-02-05_17:48:40 on domain   3:     .21001 elapsed seconds
Timing for main: time 2016-02-05_17:48:20 on domain   4:     .25773 elapsed seconds
Timing for main: time 2016-02-05_17:48:40 on domain   4:     .25575 elapsed seconds
Timing for main: time 2016-02-05_17:48:40 on domain   2:    2.02789 elapsed seconds
Timing for main: time 2016-02-05_17:48:53 on domain   3:     .23639 elapsed seconds
Timing for main: time 2016-02-05_17:49:06 on domain   3:     .21001 elapsed seconds
Timing for main: time 2016-02-05_17:49:20 on domain   3:     .21011 elapsed seconds
Timing for main: time 2016-02-05_17:49:00 on domain   4:     .25807 elapsed seconds
Timing for main: time 2016-02-05_17:49:20 on domain   4:     .25578 elapsed seconds
Timing for main: time 2016-02-05_17:49:20 on domain   2:    2.02137 elapsed seconds
Timing for main: time 2016-02-05_17:49:33 on domain   3:     .23492 elapsed seconds
Timing for main: time 2016-02-05_17:49:46 on domain   3:     .21092 elapsed seconds
Timing for main: time 2016-02-05_17:50:00 on domain   3:     .21125 elapsed seconds
Timing for main: time 2016-02-05_17:49:40 on domain   4:     .25815 elapsed seconds
Timing for main: time 2016-02-05_17:50:00 on domain   4:     .26622 elapsed seconds
Timing for main: time 2016-02-05_17:50:00 on domain   2:    2.03300 elapsed seconds
Timing for main: time 2016-02-05_17:50:00 on domain   1:    6.50746 elapsed seconds
Timing for main: time 2016-02-05_17:50:13 on domain   3:     .23573 elapsed seconds
Timing for main: time 2016-02-05_17:50:26 on domain   3:     .21599 elapsed seconds
Timing for main: time 2016-02-05_17:50:40 on domain   3:     .21004 elapsed seconds
Timing for main: time 2016-02-05_17:50:20 on domain   4:     .25789 elapsed seconds
Timing for main: time 2016-02-05_17:50:40 on domain   4:     .25569 elapsed seconds
Timing for main: time 2016-02-05_17:50:40 on domain   2:    2.07155 elapsed seconds
Timing for main: time 2016-02-05_17:50:53 on domain   3:     .23484 elapsed seconds
Timing for main: time 2016-02-05_17:51:06 on domain   3:     .21031 elapsed seconds
Timing for main: time 2016-02-05_17:51:20 on domain   3:     .21004 elapsed seconds
Timing for main: time 2016-02-05_17:51:00 on domain   4:     .25738 elapsed seconds
Timing for main: time 2016-02-05_17:51:20 on domain   4:     .25666 elapsed seconds
Timing for main: time 2016-02-05_17:51:20 on domain   2:    2.01932 elapsed seconds
Timing for main: time 2016-02-05_17:51:33 on domain   3:     .23513 elapsed seconds
Timing for main: time 2016-02-05_17:51:46 on domain   3:     .21171 elapsed seconds
Timing for main: time 2016-02-05_17:52:00 on domain   3:     .21073 elapsed seconds
Timing for main: time 2016-02-05_17:51:40 on domain   4:     .25794 elapsed seconds
Timing for main: time 2016-02-05_17:52:00 on domain   4:     .25574 elapsed seconds
Timing for main: time 2016-02-05_17:52:00 on domain   2:    2.03186 elapsed seconds
Timing for main: time 2016-02-05_17:52:00 on domain   1:    6.54757 elapsed seconds
Timing for main: time 2016-02-05_17:52:13 on domain   3:     .23497 elapsed seconds
Timing for main: time 2016-02-05_17:52:26 on domain   3:     .21071 elapsed seconds
Timing for main: time 2016-02-05_17:52:40 on domain   3:     .21821 elapsed seconds
Timing for main: time 2016-02-05_17:52:20 on domain   4:     .25796 elapsed seconds
Timing for main: time 2016-02-05_17:52:40 on domain   4:     .25495 elapsed seconds
Timing for main: time 2016-02-05_17:52:40 on domain   2:    2.04036 elapsed seconds
Timing for main: time 2016-02-05_17:52:53 on domain   3:     .23948 elapsed seconds
Timing for main: time 2016-02-05_17:53:06 on domain   3:     .21038 elapsed seconds
Timing for main: time 2016-02-05_17:53:20 on domain   3:     .21061 elapsed seconds
Timing for main: time 2016-02-05_17:53:00 on domain   4:     .25881 elapsed seconds
Timing for main: time 2016-02-05_17:53:20 on domain   4:     .25514 elapsed seconds
Timing for main: time 2016-02-05_17:53:20 on domain   2:    2.02285 elapsed seconds
Timing for main: time 2016-02-05_17:53:33 on domain   3:     .23474 elapsed seconds
Timing for main: time 2016-02-05_17:53:46 on domain   3:     .21121 elapsed seconds
Timing for main: time 2016-02-05_17:54:00 on domain   3:     .20995 elapsed seconds
Timing for main: time 2016-02-05_17:53:40 on domain   4:     .25869 elapsed seconds
Timing for main: time 2016-02-05_17:54:00 on domain   4:     .25498 elapsed seconds
Timing for main: time 2016-02-05_17:54:00 on domain   2:    2.01853 elapsed seconds
Timing for main: time 2016-02-05_17:54:00 on domain   1:    6.52765 elapsed seconds
Timing for main: time 2016-02-05_17:54:13 on domain   3:     .23560 elapsed seconds
Timing for main: time 2016-02-05_17:54:26 on domain   3:     .21169 elapsed seconds
Timing for main: time 2016-02-05_17:54:40 on domain   3:     .20986 elapsed seconds
Timing for main: time 2016-02-05_17:54:20 on domain   4:     .25963 elapsed seconds
Timing for main: time 2016-02-05_17:54:40 on domain   4:     .25663 elapsed seconds
Timing for main: time 2016-02-05_17:54:40 on domain   2:    2.03136 elapsed seconds
Timing for main: time 2016-02-05_17:54:53 on domain   3:     .23538 elapsed seconds
Timing for main: time 2016-02-05_17:55:06 on domain   3:     .20949 elapsed seconds
Timing for main: time 2016-02-05_17:55:20 on domain   3:     .21045 elapsed seconds
Timing for main: time 2016-02-05_17:55:00 on domain   4:     .26942 elapsed seconds
Timing for main: time 2016-02-05_17:55:20 on domain   4:     .25548 elapsed seconds
Timing for main: time 2016-02-05_17:55:20 on domain   2:    2.02930 elapsed seconds
Timing for main: time 2016-02-05_17:55:33 on domain   3:     .23597 elapsed seconds
Timing for main: time 2016-02-05_17:55:46 on domain   3:     .21026 elapsed seconds
Timing for main: time 2016-02-05_17:56:00 on domain   3:     .21027 elapsed seconds
Timing for main: time 2016-02-05_17:55:40 on domain   4:     .25946 elapsed seconds
Timing for main: time 2016-02-05_17:56:00 on domain   4:     .25531 elapsed seconds
Timing for main: time 2016-02-05_17:56:00 on domain   2:    2.02020 elapsed seconds
Timing for main: time 2016-02-05_17:56:00 on domain   1:    6.50518 elapsed seconds
Timing for main: time 2016-02-05_17:56:13 on domain   3:     .23589 elapsed seconds
Timing for main: time 2016-02-05_17:56:26 on domain   3:     .21123 elapsed seconds
Timing for main: time 2016-02-05_17:56:40 on domain   3:     .20989 elapsed seconds
Timing for main: time 2016-02-05_17:56:20 on domain   4:     .25848 elapsed seconds
Timing for main: time 2016-02-05_17:56:40 on domain   4:     .25434 elapsed seconds
Timing for main: time 2016-02-05_17:56:40 on domain   2:    2.02841 elapsed seconds
Timing for main: time 2016-02-05_17:56:53 on domain   3:     .23571 elapsed seconds
Timing for main: time 2016-02-05_17:57:06 on domain   3:     .21287 elapsed seconds
Timing for main: time 2016-02-05_17:57:20 on domain   3:     .21003 elapsed seconds
Timing for main: time 2016-02-05_17:57:00 on domain   4:     .25868 elapsed seconds
Timing for main: time 2016-02-05_17:57:20 on domain   4:     .25675 elapsed seconds
Timing for main: time 2016-02-05_17:57:20 on domain   2:    2.03138 elapsed seconds
Timing for main: time 2016-02-05_17:57:33 on domain   3:     .23491 elapsed seconds
Timing for main: time 2016-02-05_17:57:46 on domain   3:     .21976 elapsed seconds
Timing for main: time 2016-02-05_17:58:00 on domain   3:     .21043 elapsed seconds
Timing for main: time 2016-02-05_17:57:40 on domain   4:     .25901 elapsed seconds
Timing for main: time 2016-02-05_17:58:00 on domain   4:     .25551 elapsed seconds
Timing for main: time 2016-02-05_17:58:00 on domain   2:    2.02949 elapsed seconds
Timing for main: time 2016-02-05_17:58:00 on domain   1:    6.51165 elapsed seconds
  photolysis_driver: called for domain  1
Timing for main: time 2016-02-05_17:58:13 on domain   3:     .23493 elapsed seconds
Timing for main: time 2016-02-05_17:58:26 on domain   3:     .21390 elapsed seconds
Timing for main: time 2016-02-05_17:58:40 on domain   3:     .20785 elapsed seconds
Timing for main: time 2016-02-05_17:58:20 on domain   4:     .25845 elapsed seconds
Timing for main: time 2016-02-05_17:58:40 on domain   4:     .25581 elapsed seconds
Timing for main: time 2016-02-05_17:58:40 on domain   2:    2.02943 elapsed seconds
Timing for main: time 2016-02-05_17:58:53 on domain   3:     .23643 elapsed seconds
Timing for main: time 2016-02-05_17:59:06 on domain   3:     .20998 elapsed seconds
Timing for main: time 2016-02-05_17:59:20 on domain   3:     .20967 elapsed seconds
Timing for main: time 2016-02-05_17:59:00 on domain   4:     .25791 elapsed seconds
Timing for main: time 2016-02-05_17:59:20 on domain   4:     .25545 elapsed seconds
Timing for main: time 2016-02-05_17:59:20 on domain   2:    2.01950 elapsed seconds
  photolysis_driver: called for domain  2
Timing for main: time 2016-02-05_17:59:33 on domain   3:     .23564 elapsed seconds
Timing for main: time 2016-02-05_17:59:46 on domain   3:     .21001 elapsed seconds
  photolysis_driver: called for domain  3
Timing for main: time 2016-02-05_18:00:00 on domain   3:    1.02567 elapsed seconds
Timing for Writing wrfout_d03_2016-02-05_18:00:00 for domain        3:    2.57044 elapsed seconds
Timing for main: time 2016-02-05_17:59:40 on domain   4:     .26398 elapsed seconds
  photolysis_driver: called for domain  4
Timing for main: time 2016-02-05_18:00:00 on domain   4:    1.22528 elapsed seconds
Timing for Writing wrfout_d04_2016-02-05_18:00:00 for domain        4:    2.91527 elapsed seconds
Timing for main: time 2016-02-05_18:00:00 on domain   2:   10.32162 elapsed seconds
Timing for Writing wrfout_d02_2016-02-05_18:00:00 for domain        2:    3.18410 elapsed seconds
Timing for main: time 2016-02-05_18:00:00 on domain   1:   18.53603 elapsed seconds
Timing for Writing wrfout_d01_2016-02-05_18:00:00 for domain        1:    2.60827 elapsed seconds
 d01 2016-02-05_18:00:00 wrf: SUCCESS COMPLETE WRF
