taskid: 0 hostname: p10a51.pbm.ihost.com
  Ntasks in X  8 , ntasks in Y  10
 Setting blank km_opt entries to domain #1 values.
  --> The km_opt entry in the namelist.input is now max_domains.
 Setting blank diff_opt entries to domain #1 values.
  --> The diff_opt entry in the namelist.input is now max_domains.
 --- WARNING: traj_opt is zero, but num_traj is not zero; setting num_traj to zero.
 --- NOTE: hypsometric_opt is 2, setting adjust_heights = F
 --- NOTE: sst_update is 0, setting io_form_auxinput4 = 0 and auxinput4_interval = 0 for all domains
 --- NOTE: sst_update is 0, setting io_form_auxinput4 = 0 and auxinput4_interval = 0 for all domains
 --- NOTE: sst_update is 0, setting io_form_auxinput4 = 0 and auxinput4_interval = 0 for all domains
 --- NOTE: sst_update is 0, setting io_form_auxinput4 = 0 and auxinput4_interval = 0 for all domains
 --- NOTE: grid_fdda is 0 for domain      1, setting gfdda interval and ending time to 0 for that domain.
 --- NOTE: both grid_sfdda and pxlsm_soil_nudge are 0 for domain      1, setting sgfdda interval and ending time to 0 for that domain.
 --- NOTE: obs_nudge_opt is 0 for domain      1, setting obs nudging interval and ending time to 0 for that domain.
 --- NOTE: grid_fdda is 0 for domain      2, setting gfdda interval and ending time to 0 for that domain.
 --- NOTE: both grid_sfdda and pxlsm_soil_nudge are 0 for domain      2, setting sgfdda interval and ending time to 0 for that domain.
 --- NOTE: obs_nudge_opt is 0 for domain      2, setting obs nudging interval and ending time to 0 for that domain.
 --- NOTE: grid_fdda is 0 for domain      3, setting gfdda interval and ending time to 0 for that domain.
 --- NOTE: both grid_sfdda and pxlsm_soil_nudge are 0 for domain      3, setting sgfdda interval and ending time to 0 for that domain.
 --- NOTE: obs_nudge_opt is 0 for domain      3, setting obs nudging interval and ending time to 0 for that domain.
 --- NOTE: grid_fdda is 0 for domain      4, setting gfdda interval and ending time to 0 for that domain.
 --- NOTE: both grid_sfdda and pxlsm_soil_nudge are 0 for domain      4, setting sgfdda interval and ending time to 0 for that domain.
 --- NOTE: obs_nudge_opt is 0 for domain      4, setting obs nudging interval and ending time to 0 for that domain.
 bl_pbl_physics /= 4, implies mfshconv must be 0, resetting
 --- NOTE: num_soil_layers has been set to      4
 WRF V3.6 MODEL
  *************************************
  Parent domain
  ids,ide,jds,jde  1 271 1 181
  ims,ime,jms,jme  -4 41 -4 25
  ips,ipe,jps,jpe  1 34 1 18
  *************************************
 DYNAMICS OPTION: Eulerian Mass Coordinate
    alloc_space_field: domain  1 ,  137778416  bytes allocated
   med_initialdata_input: calling input_input
Timing for processing wrfinput file (stream 0) for domain        1:    4.42070 elapsed seconds
 INPUT LandUse = "USGS"
  LANDUSE TYPE = "USGS" FOUND 33  CATEGORIES 2  SEASONS WATER CATEGORY =  16  SNOW CATEGORY =  24
 INITIALIZE THREE Noah LSM RELATED TABLES
  LANDUSE TYPE = USGS FOUND 27  CATEGORIES
  INPUT SOIL TEXTURE CLASSIFICATION = STAS
  SOIL TEXTURE CLASSIFICATION = STAS FOUND 19  CATEGORIES
 *********************************************************************
 *             PROGRAM:WRF/CHEM V3.6 MODEL
 *                                                                   *
 *    PLEASE REPORT ANY BUGS TO WRF/CHEM HELP at                     *
 *                                                                   *
 *              wrfchemhelp.gsd@noaa.gov                             *
 *                                                                   *
 *********************************************************************
 WARNING: dust option 1 currently works only with the GOCART aerosol option.
 WARNING: sea salt option 1 currently works only with the GOCART aerosol option.
  *************************************
  Nesting domain
  ids,ide,jds,jde  1 361 1 253
  ims,ime,jms,jme  -4 57 -4 36
  ips,ipe,jps,jpe  1 45 1 26
  INTERMEDIATE domain
  ids,ide,jds,jde  74 199 47 136
  ims,ime,jms,jme  69 100 42 67
  ips,ipe,jps,jpe  72 90 45 57
  *************************************
 d01 2016-02-05_12:00:00  alloc_space_field: domain  2 ,  248467424  bytes allocated
 d01 2016-02-05_12:00:00  alloc_space_field: domain  2 ,  10479872  bytes allocated
 d01 2016-02-05_12:00:00 *** Initializing nest domain # 2 from an input file. ***
 d01 2016-02-05_12:00:00 med_initialdata_input: calling input_input
Timing for processing wrfinput file (stream 0) for domain        2:    6.71302 elapsed seconds
 INPUT LandUse = "USGS"
  LANDUSE TYPE = "USGS" FOUND 33  CATEGORIES 2  SEASONS WATER CATEGORY =  16  SNOW CATEGORY =  24
 INITIALIZE THREE Noah LSM RELATED TABLES
  LANDUSE TYPE = USGS FOUND 27  CATEGORIES
  INPUT SOIL TEXTURE CLASSIFICATION = STAS
  SOIL TEXTURE CLASSIFICATION = STAS FOUND 19  CATEGORIES
 *********************************************************************
 *             PROGRAM:WRF/CHEM V3.6 MODEL
 *                                                                   *
 *    PLEASE REPORT ANY BUGS TO WRF/CHEM HELP at                     *
 *                                                                   *
 *              wrfchemhelp.gsd@noaa.gov                             *
 *                                                                   *
 *********************************************************************
 WARNING: dust option 1 currently works only with the GOCART aerosol option.
 WARNING: sea salt option 1 currently works only with the GOCART aerosol option.
 INPUT LandUse = "USGS"
  LANDUSE TYPE = "USGS" FOUND 33  CATEGORIES 2  SEASONS WATER CATEGORY =  16  SNOW CATEGORY =  24
 INITIALIZE THREE Noah LSM RELATED TABLES
  LANDUSE TYPE = USGS FOUND 27  CATEGORIES
  INPUT SOIL TEXTURE CLASSIFICATION = STAS
  SOIL TEXTURE CLASSIFICATION = STAS FOUND 19  CATEGORIES
 *********************************************************************
 *             PROGRAM:WRF/CHEM V3.6 MODEL
 *                                                                   *
 *    PLEASE REPORT ANY BUGS TO WRF/CHEM HELP at                     *
 *                                                                   *
 *              wrfchemhelp.gsd@noaa.gov                             *
 *                                                                   *
 *********************************************************************
 WARNING: dust option 1 currently works only with the GOCART aerosol option.
 WARNING: sea salt option 1 currently works only with the GOCART aerosol option.
 INPUT LandUse = "USGS"
  LANDUSE TYPE = "USGS" FOUND 33  CATEGORIES 2  SEASONS WATER CATEGORY =  16  SNOW CATEGORY =  24
 INITIALIZE THREE Noah LSM RELATED TABLES
  LANDUSE TYPE = USGS FOUND 27  CATEGORIES
  INPUT SOIL TEXTURE CLASSIFICATION = STAS
  SOIL TEXTURE CLASSIFICATION = STAS FOUND 19  CATEGORIES
 *********************************************************************
 *             PROGRAM:WRF/CHEM V3.6 MODEL
 *                                                                   *
 *    PLEASE REPORT ANY BUGS TO WRF/CHEM HELP at                     *
 *                                                                   *
 *              wrfchemhelp.gsd@noaa.gov                             *
 *                                                                   *
 *********************************************************************
 WARNING: dust option 1 currently works only with the GOCART aerosol option.
 WARNING: sea salt option 1 currently works only with the GOCART aerosol option.
Timing for Writing wrfout_d01_2016-02-05_12:00:00 for domain        1:    1.22273 elapsed seconds
  mediation_integrate: med_read_wrf_chem_emissions: Open file wrfchemi_12z_d01
  HOURLY EMISSIONS UPDATE TIME         .0        .0
 mediation_integrate: med_read_wrf_chem_emissions: Read emissions for time 2016-02-05_12:00:00
 **WARNING** Time in input file not being checked **WARNING**
Timing for processing lateral boundary for domain        1:    2.95847 elapsed seconds
  Tile Strategy is not specified. Assuming 1D-Y
 WRF TILE   1 IS      1 IE     34 JS      1 JE     18
 WRF NUMBER OF TILES =   1
  photolysis_driver: called for domain  1
  *************************************
  Nesting domain
  ids,ide,jds,jde  1 307 1 241
  ims,ime,jms,jme  -4 51 -4 36
  ips,ipe,jps,jpe  1 39 1 24
  INTERMEDIATE domain
  ids,ide,jds,jde  124 231 35 120
  ims,ime,jms,jme  119 148 30 54
  ips,ipe,jps,jpe  122 138 33 44
  *************************************
 d02 2016-02-05_12:00:00  alloc_space_field: domain  3 ,  224880776  bytes allocated
 d02 2016-02-05_12:00:00  alloc_space_field: domain  3 ,  9447000  bytes allocated
 d02 2016-02-05_12:00:00 *** Initializing nest domain # 3 from an input file. ***
 d02 2016-02-05_12:00:00 med_initialdata_input: calling input_input
Timing for processing wrfinput file (stream 0) for domain        3:    5.64455 elapsed seconds
 INPUT LandUse = "USGS"
  LANDUSE TYPE = "USGS" FOUND 33  CATEGORIES 2  SEASONS WATER CATEGORY =  16  SNOW CATEGORY =  24
 INITIALIZE THREE Noah LSM RELATED TABLES
  LANDUSE TYPE = USGS FOUND 27  CATEGORIES
  INPUT SOIL TEXTURE CLASSIFICATION = STAS
  SOIL TEXTURE CLASSIFICATION = STAS FOUND 19  CATEGORIES
 *********************************************************************
 *             PROGRAM:WRF/CHEM V3.6 MODEL
 *                                                                   *
 *    PLEASE REPORT ANY BUGS TO WRF/CHEM HELP at                     *
 *                                                                   *
 *              wrfchemhelp.gsd@noaa.gov                             *
 *                                                                   *
 *********************************************************************
 WARNING: dust option 1 currently works only with the GOCART aerosol option.
 WARNING: sea salt option 1 currently works only with the GOCART aerosol option.
 INPUT LandUse = "USGS"
  LANDUSE TYPE = "USGS" FOUND 33  CATEGORIES 2  SEASONS WATER CATEGORY =  16  SNOW CATEGORY =  24
 INITIALIZE THREE Noah LSM RELATED TABLES
  LANDUSE TYPE = USGS FOUND 27  CATEGORIES
  INPUT SOIL TEXTURE CLASSIFICATION = STAS
  SOIL TEXTURE CLASSIFICATION = STAS FOUND 19  CATEGORIES
 *********************************************************************
 *             PROGRAM:WRF/CHEM V3.6 MODEL
 *                                                                   *
 *    PLEASE REPORT ANY BUGS TO WRF/CHEM HELP at                     *
 *                                                                   *
 *              wrfchemhelp.gsd@noaa.gov                             *
 *                                                                   *
 *********************************************************************
 WARNING: dust option 1 currently works only with the GOCART aerosol option.
 WARNING: sea salt option 1 currently works only with the GOCART aerosol option.
 INPUT LandUse = "USGS"
  LANDUSE TYPE = "USGS" FOUND 33  CATEGORIES 2  SEASONS WATER CATEGORY =  16  SNOW CATEGORY =  24
 INITIALIZE THREE Noah LSM RELATED TABLES
  LANDUSE TYPE = USGS FOUND 27  CATEGORIES
  INPUT SOIL TEXTURE CLASSIFICATION = STAS
  SOIL TEXTURE CLASSIFICATION = STAS FOUND 19  CATEGORIES
 *********************************************************************
 *             PROGRAM:WRF/CHEM V3.6 MODEL
 *                                                                   *
 *    PLEASE REPORT ANY BUGS TO WRF/CHEM HELP at                     *
 *                                                                   *
 *              wrfchemhelp.gsd@noaa.gov                             *
 *                                                                   *
 *********************************************************************
 WARNING: dust option 1 currently works only with the GOCART aerosol option.
 WARNING: sea salt option 1 currently works only with the GOCART aerosol option.
  *************************************
  Nesting domain
  ids,ide,jds,jde  1 217 1 388
  ims,ime,jms,jme  -4 39 -4 51
  ips,ipe,jps,jpe  1 27 1 39
  INTERMEDIATE domain
  ids,ide,jds,jde  225 302 83 217
  ims,ime,jms,jme  220 245 78 107
  ips,ipe,jps,jpe  223 235 81 97
  *************************************
 d02 2016-02-05_12:00:00  alloc_space_field: domain  4 ,  240788348  bytes allocated
 d02 2016-02-05_12:00:00  alloc_space_field: domain  4 ,  9824880  bytes allocated
 d02 2016-02-05_12:00:00 *** Initializing nest domain # 4 from an input file. ***
 d02 2016-02-05_12:00:00 med_initialdata_input: calling input_input
Timing for processing wrfinput file (stream 0) for domain        4:    6.99356 elapsed seconds
 INPUT LandUse = "USGS"
  LANDUSE TYPE = "USGS" FOUND 33  CATEGORIES 2  SEASONS WATER CATEGORY =  16  SNOW CATEGORY =  24
 INITIALIZE THREE Noah LSM RELATED TABLES
  LANDUSE TYPE = USGS FOUND 27  CATEGORIES
  INPUT SOIL TEXTURE CLASSIFICATION = STAS
  SOIL TEXTURE CLASSIFICATION = STAS FOUND 19  CATEGORIES
 *********************************************************************
 *             PROGRAM:WRF/CHEM V3.6 MODEL
 *                                                                   *
 *    PLEASE REPORT ANY BUGS TO WRF/CHEM HELP at                     *
 *                                                                   *
 *              wrfchemhelp.gsd@noaa.gov                             *
 *                                                                   *
 *********************************************************************
 WARNING: dust option 1 currently works only with the GOCART aerosol option.
 WARNING: sea salt option 1 currently works only with the GOCART aerosol option.
 INPUT LandUse = "USGS"
  LANDUSE TYPE = "USGS" FOUND 33  CATEGORIES 2  SEASONS WATER CATEGORY =  16  SNOW CATEGORY =  24
 INITIALIZE THREE Noah LSM RELATED TABLES
  LANDUSE TYPE = USGS FOUND 27  CATEGORIES
  INPUT SOIL TEXTURE CLASSIFICATION = STAS
  SOIL TEXTURE CLASSIFICATION = STAS FOUND 19  CATEGORIES
 *********************************************************************
 *             PROGRAM:WRF/CHEM V3.6 MODEL
 *                                                                   *
 *    PLEASE REPORT ANY BUGS TO WRF/CHEM HELP at                     *
 *                                                                   *
 *              wrfchemhelp.gsd@noaa.gov                             *
 *                                                                   *
 *********************************************************************
 WARNING: dust option 1 currently works only with the GOCART aerosol option.
 WARNING: sea salt option 1 currently works only with the GOCART aerosol option.
 INPUT LandUse = "USGS"
  LANDUSE TYPE = "USGS" FOUND 33  CATEGORIES 2  SEASONS WATER CATEGORY =  16  SNOW CATEGORY =  24
 INITIALIZE THREE Noah LSM RELATED TABLES
  LANDUSE TYPE = USGS FOUND 27  CATEGORIES
  INPUT SOIL TEXTURE CLASSIFICATION = STAS
  SOIL TEXTURE CLASSIFICATION = STAS FOUND 19  CATEGORIES
 *********************************************************************
 *             PROGRAM:WRF/CHEM V3.6 MODEL
 *                                                                   *
 *    PLEASE REPORT ANY BUGS TO WRF/CHEM HELP at                     *
 *                                                                   *
 *              wrfchemhelp.gsd@noaa.gov                             *
 *                                                                   *
 *********************************************************************
 WARNING: dust option 1 currently works only with the GOCART aerosol option.
 WARNING: sea salt option 1 currently works only with the GOCART aerosol option.
Timing for Writing wrfout_d02_2016-02-05_12:00:00 for domain        2:    1.88854 elapsed seconds
  mediation_integrate: med_read_wrf_chem_emissions: Open file wrfchemi_12z_d02
  HOURLY EMISSIONS UPDATE TIME         .0        .0
 mediation_integrate: med_read_wrf_chem_emissions: Read emissions for time 2016-02-05_12:00:00
 **WARNING** Time in input file not being checked **WARNING**
  Tile Strategy is not specified. Assuming 1D-Y
 WRF TILE   1 IS      1 IE     45 JS      1 JE     26
 WRF NUMBER OF TILES =   1
  photolysis_driver: called for domain  2
Timing for Writing wrfout_d03_2016-02-05_12:00:00 for domain        3:    1.58031 elapsed seconds
  mediation_integrate: med_read_wrf_chem_emissions: Open file wrfchemi_12z_d03
  HOURLY EMISSIONS UPDATE TIME         .0        .0
 mediation_integrate: med_read_wrf_chem_emissions: Read emissions for time 2016-02-05_12:00:00
 **WARNING** Time in input file not being checked **WARNING**
  Tile Strategy is not specified. Assuming 1D-Y
 WRF TILE   1 IS      1 IE     39 JS      1 JE     24
 WRF NUMBER OF TILES =   1
  photolysis_driver: called for domain  3
Timing for main: time 2016-02-05_12:00:13 on domain   3:    6.54168 elapsed seconds
Timing for main: time 2016-02-05_12:00:26 on domain   3:     .31636 elapsed seconds
Timing for main: time 2016-02-05_12:00:40 on domain   3:     .33411 elapsed seconds
Timing for Writing wrfout_d04_2016-02-05_12:00:00 for domain        4:    1.84815 elapsed seconds
  mediation_integrate: med_read_wrf_chem_emissions: Open file wrfchemi_12z_d04
  HOURLY EMISSIONS UPDATE TIME         .0        .0
 mediation_integrate: med_read_wrf_chem_emissions: Read emissions for time 2016-02-05_12:00:00
 **WARNING** Time in input file not being checked **WARNING**
  Tile Strategy is not specified. Assuming 1D-Y
 WRF TILE   1 IS      1 IE     27 JS      1 JE     39
 WRF NUMBER OF TILES =   1
  photolysis_driver: called for domain  4
Timing for main: time 2016-02-05_12:00:20 on domain   4:    7.53096 elapsed seconds
Timing for main: time 2016-02-05_12:00:40 on domain   4:     .47617 elapsed seconds
Timing for main: time 2016-02-05_12:00:40 on domain   2:   39.81970 elapsed seconds
Timing for main: time 2016-02-05_12:00:53 on domain   3:     .33547 elapsed seconds
Timing for main: time 2016-02-05_12:01:06 on domain   3:     .32080 elapsed seconds
Timing for main: time 2016-02-05_12:01:20 on domain   3:     .32051 elapsed seconds
Timing for main: time 2016-02-05_12:01:00 on domain   4:     .39508 elapsed seconds
Timing for main: time 2016-02-05_12:01:20 on domain   4:     .39184 elapsed seconds
Timing for main: time 2016-02-05_12:01:20 on domain   2:    2.75030 elapsed seconds
Timing for main: time 2016-02-05_12:01:33 on domain   3:     .33705 elapsed seconds
Timing for main: time 2016-02-05_12:01:46 on domain   3:     .32282 elapsed seconds
Timing for main: time 2016-02-05_12:02:00 on domain   3:     .32003 elapsed seconds
Timing for main: time 2016-02-05_12:01:40 on domain   4:     .39689 elapsed seconds
Timing for main: time 2016-02-05_12:02:00 on domain   4:     .39087 elapsed seconds
Timing for main: time 2016-02-05_12:02:00 on domain   2:    2.83010 elapsed seconds
Timing for main: time 2016-02-05_12:02:00 on domain   1:   63.25046 elapsed seconds
Timing for main: time 2016-02-05_12:02:13 on domain   3:     .33631 elapsed seconds
Timing for main: time 2016-02-05_12:02:26 on domain   3:     .32066 elapsed seconds
Timing for main: time 2016-02-05_12:02:40 on domain   3:     .32016 elapsed seconds
Timing for main: time 2016-02-05_12:02:20 on domain   4:     .39644 elapsed seconds
Timing for main: time 2016-02-05_12:02:40 on domain   4:     .39110 elapsed seconds
Timing for main: time 2016-02-05_12:02:40 on domain   2:    2.84097 elapsed seconds
Timing for main: time 2016-02-05_12:02:53 on domain   3:     .33558 elapsed seconds
Timing for main: time 2016-02-05_12:03:06 on domain   3:     .32107 elapsed seconds
Timing for main: time 2016-02-05_12:03:20 on domain   3:     .32046 elapsed seconds
Timing for main: time 2016-02-05_12:03:00 on domain   4:     .39623 elapsed seconds
Timing for main: time 2016-02-05_12:03:20 on domain   4:     .39160 elapsed seconds
Timing for main: time 2016-02-05_12:03:20 on domain   2:    2.82908 elapsed seconds
Timing for main: time 2016-02-05_12:03:33 on domain   3:     .33500 elapsed seconds
Timing for main: time 2016-02-05_12:03:46 on domain   3:     .32093 elapsed seconds
Timing for main: time 2016-02-05_12:04:00 on domain   3:     .31994 elapsed seconds
Timing for main: time 2016-02-05_12:03:40 on domain   4:     .39768 elapsed seconds
Timing for main: time 2016-02-05_12:04:00 on domain   4:     .39178 elapsed seconds
Timing for main: time 2016-02-05_12:04:00 on domain   2:    2.82900 elapsed seconds
Timing for main: time 2016-02-05_12:04:00 on domain   1:    9.00212 elapsed seconds
Timing for main: time 2016-02-05_12:04:13 on domain   3:     .33524 elapsed seconds
Timing for main: time 2016-02-05_12:04:26 on domain   3:     .32129 elapsed seconds
Timing for main: time 2016-02-05_12:04:40 on domain   3:     .32101 elapsed seconds
Timing for main: time 2016-02-05_12:04:20 on domain   4:     .39690 elapsed seconds
Timing for main: time 2016-02-05_12:04:40 on domain   4:     .39137 elapsed seconds
Timing for main: time 2016-02-05_12:04:40 on domain   2:    2.84338 elapsed seconds
Timing for main: time 2016-02-05_12:04:53 on domain   3:     .33681 elapsed seconds
Timing for main: time 2016-02-05_12:05:06 on domain   3:     .33712 elapsed seconds
Timing for main: time 2016-02-05_12:05:20 on domain   3:     .32022 elapsed seconds
Timing for main: time 2016-02-05_12:05:00 on domain   4:     .41458 elapsed seconds
Timing for main: time 2016-02-05_12:05:20 on domain   4:     .39320 elapsed seconds
Timing for main: time 2016-02-05_12:05:20 on domain   2:    2.88539 elapsed seconds
Timing for main: time 2016-02-05_12:05:33 on domain   3:     .33522 elapsed seconds
Timing for main: time 2016-02-05_12:05:46 on domain   3:     .32047 elapsed seconds
Timing for main: time 2016-02-05_12:06:00 on domain   3:     .32576 elapsed seconds
Timing for main: time 2016-02-05_12:05:40 on domain   4:     .39658 elapsed seconds
Timing for main: time 2016-02-05_12:06:00 on domain   4:     .39219 elapsed seconds
Timing for main: time 2016-02-05_12:06:00 on domain   2:    2.83721 elapsed seconds
Timing for main: time 2016-02-05_12:06:00 on domain   1:    9.12801 elapsed seconds
Timing for main: time 2016-02-05_12:06:13 on domain   3:     .33530 elapsed seconds
Timing for main: time 2016-02-05_12:06:26 on domain   3:     .32019 elapsed seconds
Timing for main: time 2016-02-05_12:06:40 on domain   3:     .34668 elapsed seconds
Timing for main: time 2016-02-05_12:06:20 on domain   4:     .39700 elapsed seconds
Timing for main: time 2016-02-05_12:06:40 on domain   4:     .39115 elapsed seconds
Timing for main: time 2016-02-05_12:06:40 on domain   2:    2.86478 elapsed seconds
Timing for main: time 2016-02-05_12:06:53 on domain   3:     .33789 elapsed seconds
Timing for main: time 2016-02-05_12:07:06 on domain   3:     .32083 elapsed seconds
Timing for main: time 2016-02-05_12:07:20 on domain   3:     .32109 elapsed seconds
Timing for main: time 2016-02-05_12:07:00 on domain   4:     .39700 elapsed seconds
Timing for main: time 2016-02-05_12:07:20 on domain   4:     .39445 elapsed seconds
Timing for main: time 2016-02-05_12:07:20 on domain   2:    2.83593 elapsed seconds
Timing for main: time 2016-02-05_12:07:33 on domain   3:     .33537 elapsed seconds
Timing for main: time 2016-02-05_12:07:46 on domain   3:     .32116 elapsed seconds
Timing for main: time 2016-02-05_12:08:00 on domain   3:     .32030 elapsed seconds
Timing for main: time 2016-02-05_12:07:40 on domain   4:     .39766 elapsed seconds
Timing for main: time 2016-02-05_12:08:00 on domain   4:     .39212 elapsed seconds
Timing for main: time 2016-02-05_12:08:00 on domain   2:    2.83675 elapsed seconds
Timing for main: time 2016-02-05_12:08:00 on domain   1:    9.08460 elapsed seconds
Timing for main: time 2016-02-05_12:08:13 on domain   3:     .33554 elapsed seconds
Timing for main: time 2016-02-05_12:08:26 on domain   3:     .32116 elapsed seconds
Timing for main: time 2016-02-05_12:08:40 on domain   3:     .32060 elapsed seconds
Timing for main: time 2016-02-05_12:08:20 on domain   4:     .39789 elapsed seconds
Timing for main: time 2016-02-05_12:08:40 on domain   4:     .39682 elapsed seconds
Timing for main: time 2016-02-05_12:08:40 on domain   2:    2.89049 elapsed seconds
Timing for main: time 2016-02-05_12:08:53 on domain   3:     .33555 elapsed seconds
Timing for main: time 2016-02-05_12:09:06 on domain   3:     .32138 elapsed seconds
Timing for main: time 2016-02-05_12:09:20 on domain   3:     .32024 elapsed seconds
Timing for main: time 2016-02-05_12:09:00 on domain   4:     .39768 elapsed seconds
Timing for main: time 2016-02-05_12:09:20 on domain   4:     .39159 elapsed seconds
Timing for main: time 2016-02-05_12:09:20 on domain   2:    2.82892 elapsed seconds
Timing for main: time 2016-02-05_12:09:33 on domain   3:     .33510 elapsed seconds
Timing for main: time 2016-02-05_12:09:46 on domain   3:     .32065 elapsed seconds
Timing for main: time 2016-02-05_12:10:00 on domain   3:     .35147 elapsed seconds
Timing for main: time 2016-02-05_12:09:40 on domain   4:     .40143 elapsed seconds
Timing for main: time 2016-02-05_12:10:00 on domain   4:     .40808 elapsed seconds
Timing for main: time 2016-02-05_12:10:00 on domain   2:    2.88497 elapsed seconds
Timing for main: time 2016-02-05_12:10:00 on domain   1:    9.15069 elapsed seconds
Timing for main: time 2016-02-05_12:10:13 on domain   3:     .35135 elapsed seconds
Timing for main: time 2016-02-05_12:10:26 on domain   3:     .32114 elapsed seconds
Timing for main: time 2016-02-05_12:10:40 on domain   3:     .32214 elapsed seconds
Timing for main: time 2016-02-05_12:10:20 on domain   4:     .39821 elapsed seconds
Timing for main: time 2016-02-05_12:10:40 on domain   4:     .39281 elapsed seconds
Timing for main: time 2016-02-05_12:10:40 on domain   2:    2.88333 elapsed seconds
Timing for main: time 2016-02-05_12:10:53 on domain   3:     .33564 elapsed seconds
Timing for main: time 2016-02-05_12:11:06 on domain   3:     .32063 elapsed seconds
Timing for main: time 2016-02-05_12:11:20 on domain   3:     .32113 elapsed seconds
Timing for main: time 2016-02-05_12:11:00 on domain   4:     .39859 elapsed seconds
Timing for main: time 2016-02-05_12:11:20 on domain   4:     .39235 elapsed seconds
Timing for main: time 2016-02-05_12:11:20 on domain   2:    2.83251 elapsed seconds
Timing for main: time 2016-02-05_12:11:33 on domain   3:     .33539 elapsed seconds
Timing for main: time 2016-02-05_12:11:46 on domain   3:     .32152 elapsed seconds
Timing for main: time 2016-02-05_12:12:00 on domain   3:     .32146 elapsed seconds
Timing for main: time 2016-02-05_12:11:40 on domain   4:     .39937 elapsed seconds
Timing for main: time 2016-02-05_12:12:00 on domain   4:     .39141 elapsed seconds
Timing for main: time 2016-02-05_12:12:00 on domain   2:    2.83367 elapsed seconds
Timing for main: time 2016-02-05_12:12:00 on domain   1:    9.17753 elapsed seconds
Timing for main: time 2016-02-05_12:12:13 on domain   3:     .33646 elapsed seconds
Timing for main: time 2016-02-05_12:12:26 on domain   3:     .37151 elapsed seconds
Timing for main: time 2016-02-05_12:12:40 on domain   3:     .32473 elapsed seconds
Timing for main: time 2016-02-05_12:12:20 on domain   4:     .39770 elapsed seconds
Timing for main: time 2016-02-05_12:12:40 on domain   4:     .39265 elapsed seconds
Timing for main: time 2016-02-05_12:12:40 on domain   2:    2.89825 elapsed seconds
Timing for main: time 2016-02-05_12:12:53 on domain   3:     .33528 elapsed seconds
Timing for main: time 2016-02-05_12:13:06 on domain   3:     .32102 elapsed seconds
Timing for main: time 2016-02-05_12:13:20 on domain   3:     .32242 elapsed seconds
Timing for main: time 2016-02-05_12:13:00 on domain   4:     .39797 elapsed seconds
Timing for main: time 2016-02-05_12:13:20 on domain   4:     .39188 elapsed seconds
Timing for main: time 2016-02-05_12:13:20 on domain   2:    2.83272 elapsed seconds
Timing for main: time 2016-02-05_12:13:33 on domain   3:     .33690 elapsed seconds
Timing for main: time 2016-02-05_12:13:46 on domain   3:     .32064 elapsed seconds
Timing for main: time 2016-02-05_12:14:00 on domain   3:     .32131 elapsed seconds
Timing for main: time 2016-02-05_12:13:40 on domain   4:     .39750 elapsed seconds
Timing for main: time 2016-02-05_12:14:00 on domain   4:     .40006 elapsed seconds
Timing for main: time 2016-02-05_12:14:00 on domain   2:    2.84114 elapsed seconds
Timing for main: time 2016-02-05_12:14:00 on domain   1:    9.12202 elapsed seconds
Timing for main: time 2016-02-05_12:14:13 on domain   3:     .33570 elapsed seconds
Timing for main: time 2016-02-05_12:14:26 on domain   3:     .32098 elapsed seconds
Timing for main: time 2016-02-05_12:14:40 on domain   3:     .32139 elapsed seconds
Timing for main: time 2016-02-05_12:14:20 on domain   4:     .39763 elapsed seconds
Timing for main: time 2016-02-05_12:14:40 on domain   4:     .39391 elapsed seconds
Timing for main: time 2016-02-05_12:14:40 on domain   2:    2.84775 elapsed seconds
Timing for main: time 2016-02-05_12:14:53 on domain   3:     .33681 elapsed seconds
Timing for main: time 2016-02-05_12:15:06 on domain   3:     .32102 elapsed seconds
Timing for main: time 2016-02-05_12:15:20 on domain   3:     .33716 elapsed seconds
Timing for main: time 2016-02-05_12:15:00 on domain   4:     .41717 elapsed seconds
Timing for main: time 2016-02-05_12:15:20 on domain   4:     .39243 elapsed seconds
Timing for main: time 2016-02-05_12:15:20 on domain   2:    2.86866 elapsed seconds
Timing for main: time 2016-02-05_12:15:33 on domain   3:     .33659 elapsed seconds
Timing for main: time 2016-02-05_12:15:46 on domain   3:     .32146 elapsed seconds
Timing for main: time 2016-02-05_12:16:00 on domain   3:     .32154 elapsed seconds
Timing for main: time 2016-02-05_12:15:40 on domain   4:     .39804 elapsed seconds
Timing for main: time 2016-02-05_12:16:00 on domain   4:     .39393 elapsed seconds
Timing for main: time 2016-02-05_12:16:00 on domain   2:    2.85472 elapsed seconds
Timing for main: time 2016-02-05_12:16:00 on domain   1:    9.11682 elapsed seconds
Timing for main: time 2016-02-05_12:16:13 on domain   3:     .33673 elapsed seconds
Timing for main: time 2016-02-05_12:16:26 on domain   3:     .32162 elapsed seconds
Timing for main: time 2016-02-05_12:16:40 on domain   3:     .32047 elapsed seconds
Timing for main: time 2016-02-05_12:16:20 on domain   4:     .39816 elapsed seconds
Timing for main: time 2016-02-05_12:16:40 on domain   4:     .39579 elapsed seconds
Timing for main: time 2016-02-05_12:16:40 on domain   2:    2.85048 elapsed seconds
Timing for main: time 2016-02-05_12:16:53 on domain   3:     .33586 elapsed seconds
Timing for main: time 2016-02-05_12:17:06 on domain   3:     .32393 elapsed seconds
Timing for main: time 2016-02-05_12:17:20 on domain   3:     .32195 elapsed seconds
Timing for main: time 2016-02-05_12:17:00 on domain   4:     .40268 elapsed seconds
Timing for main: time 2016-02-05_12:17:20 on domain   4:     .48822 elapsed seconds
Timing for main: time 2016-02-05_12:17:20 on domain   2:    2.93592 elapsed seconds
Timing for main: time 2016-02-05_12:17:33 on domain   3:     .33554 elapsed seconds
Timing for main: time 2016-02-05_12:17:46 on domain   3:     .32271 elapsed seconds
Timing for main: time 2016-02-05_12:18:00 on domain   3:     .32134 elapsed seconds
Timing for main: time 2016-02-05_12:17:40 on domain   4:     .39788 elapsed seconds
Timing for main: time 2016-02-05_12:18:00 on domain   4:     .39351 elapsed seconds
Timing for main: time 2016-02-05_12:18:00 on domain   2:    2.83901 elapsed seconds
Timing for main: time 2016-02-05_12:18:00 on domain   1:    9.18680 elapsed seconds
Timing for main: time 2016-02-05_12:18:13 on domain   3:     .33555 elapsed seconds
Timing for main: time 2016-02-05_12:18:26 on domain   3:     .32125 elapsed seconds
Timing for main: time 2016-02-05_12:18:40 on domain   3:     .32340 elapsed seconds
Timing for main: time 2016-02-05_12:18:20 on domain   4:     .40024 elapsed seconds
Timing for main: time 2016-02-05_12:18:40 on domain   4:     .39168 elapsed seconds
Timing for main: time 2016-02-05_12:18:40 on domain   2:    2.84996 elapsed seconds
Timing for main: time 2016-02-05_12:18:53 on domain   3:     .33631 elapsed seconds
Timing for main: time 2016-02-05_12:19:06 on domain   3:     .32139 elapsed seconds
Timing for main: time 2016-02-05_12:19:20 on domain   3:     .32209 elapsed seconds
Timing for main: time 2016-02-05_12:19:00 on domain   4:     .39758 elapsed seconds
Timing for main: time 2016-02-05_12:19:20 on domain   4:     .39378 elapsed seconds
Timing for main: time 2016-02-05_12:19:20 on domain   2:    2.83444 elapsed seconds
Timing for main: time 2016-02-05_12:19:33 on domain   3:     .33596 elapsed seconds
Timing for main: time 2016-02-05_12:19:46 on domain   3:     .32635 elapsed seconds
Timing for main: time 2016-02-05_12:20:00 on domain   3:     .32083 elapsed seconds
Timing for main: time 2016-02-05_12:19:40 on domain   4:     .39771 elapsed seconds
Timing for main: time 2016-02-05_12:20:00 on domain   4:     .41069 elapsed seconds
Timing for main: time 2016-02-05_12:20:00 on domain   2:    2.85557 elapsed seconds
Timing for main: time 2016-02-05_12:20:00 on domain   1:    9.08634 elapsed seconds
Timing for main: time 2016-02-05_12:20:13 on domain   3:     .33634 elapsed seconds
Timing for main: time 2016-02-05_12:20:26 on domain   3:     .33716 elapsed seconds
Timing for main: time 2016-02-05_12:20:40 on domain   3:     .32464 elapsed seconds
Timing for main: time 2016-02-05_12:20:20 on domain   4:     .39965 elapsed seconds
Timing for main: time 2016-02-05_12:20:40 on domain   4:     .39338 elapsed seconds
Timing for main: time 2016-02-05_12:20:40 on domain   2:    2.86875 elapsed seconds
Timing for main: time 2016-02-05_12:20:53 on domain   3:     .33574 elapsed seconds
Timing for main: time 2016-02-05_12:21:06 on domain   3:     .32231 elapsed seconds
Timing for main: time 2016-02-05_12:21:20 on domain   3:     .32102 elapsed seconds
Timing for main: time 2016-02-05_12:21:00 on domain   4:     .39785 elapsed seconds
Timing for main: time 2016-02-05_12:21:20 on domain   4:     .39271 elapsed seconds
Timing for main: time 2016-02-05_12:21:20 on domain   2:    2.94612 elapsed seconds
Timing for main: time 2016-02-05_12:21:33 on domain   3:     .33572 elapsed seconds
Timing for main: time 2016-02-05_12:21:46 on domain   3:     .32251 elapsed seconds
Timing for main: time 2016-02-05_12:22:00 on domain   3:     .32338 elapsed seconds
Timing for main: time 2016-02-05_12:21:40 on domain   4:     .39772 elapsed seconds
Timing for main: time 2016-02-05_12:22:00 on domain   4:     .39269 elapsed seconds
Timing for main: time 2016-02-05_12:22:00 on domain   2:    2.83756 elapsed seconds
Timing for main: time 2016-02-05_12:22:00 on domain   1:    9.19727 elapsed seconds
Timing for main: time 2016-02-05_12:22:13 on domain   3:     .33913 elapsed seconds
Timing for main: time 2016-02-05_12:22:26 on domain   3:     .32057 elapsed seconds
Timing for main: time 2016-02-05_12:22:40 on domain   3:     .32098 elapsed seconds
Timing for main: time 2016-02-05_12:22:20 on domain   4:     .39787 elapsed seconds
Timing for main: time 2016-02-05_12:22:40 on domain   4:     .39278 elapsed seconds
Timing for main: time 2016-02-05_12:22:40 on domain   2:    2.84929 elapsed seconds
Timing for main: time 2016-02-05_12:22:53 on domain   3:     .33583 elapsed seconds
Timing for main: time 2016-02-05_12:23:06 on domain   3:     .32267 elapsed seconds
Timing for main: time 2016-02-05_12:23:20 on domain   3:     .32261 elapsed seconds
Timing for main: time 2016-02-05_12:23:00 on domain   4:     .40243 elapsed seconds
Timing for main: time 2016-02-05_12:23:20 on domain   4:     .39408 elapsed seconds
Timing for main: time 2016-02-05_12:23:20 on domain   2:    2.84142 elapsed seconds
Timing for main: time 2016-02-05_12:23:33 on domain   3:     .33782 elapsed seconds
Timing for main: time 2016-02-05_12:23:46 on domain   3:     .32088 elapsed seconds
Timing for main: time 2016-02-05_12:24:00 on domain   3:     .32207 elapsed seconds
Timing for main: time 2016-02-05_12:23:40 on domain   4:     .39849 elapsed seconds
Timing for main: time 2016-02-05_12:24:00 on domain   4:     .39317 elapsed seconds
Timing for main: time 2016-02-05_12:24:00 on domain   2:    2.83551 elapsed seconds
Timing for main: time 2016-02-05_12:24:00 on domain   1:    9.08609 elapsed seconds
Timing for main: time 2016-02-05_12:24:13 on domain   3:     .33694 elapsed seconds
Timing for main: time 2016-02-05_12:24:26 on domain   3:     .32099 elapsed seconds
Timing for main: time 2016-02-05_12:24:40 on domain   3:     .32097 elapsed seconds
Timing for main: time 2016-02-05_12:24:20 on domain   4:     .39767 elapsed seconds
Timing for main: time 2016-02-05_12:24:40 on domain   4:     .39365 elapsed seconds
Timing for main: time 2016-02-05_12:24:40 on domain   2:    2.84919 elapsed seconds
Timing for main: time 2016-02-05_12:24:53 on domain   3:     .33711 elapsed seconds
Timing for main: time 2016-02-05_12:25:06 on domain   3:     .32376 elapsed seconds
Timing for main: time 2016-02-05_12:25:20 on domain   3:     .32253 elapsed seconds
Timing for main: time 2016-02-05_12:25:00 on domain   4:     .41663 elapsed seconds
Timing for main: time 2016-02-05_12:25:20 on domain   4:     .39344 elapsed seconds
Timing for main: time 2016-02-05_12:25:20 on domain   2:    2.85750 elapsed seconds
Timing for main: time 2016-02-05_12:25:33 on domain   3:     .35173 elapsed seconds
Timing for main: time 2016-02-05_12:25:46 on domain   3:     .32192 elapsed seconds
Timing for main: time 2016-02-05_12:26:00 on domain   3:     .40931 elapsed seconds
Timing for main: time 2016-02-05_12:25:40 on domain   4:     .39911 elapsed seconds
Timing for main: time 2016-02-05_12:26:00 on domain   4:     .39241 elapsed seconds
Timing for main: time 2016-02-05_12:26:00 on domain   2:    2.93821 elapsed seconds
Timing for main: time 2016-02-05_12:26:00 on domain   1:    9.19178 elapsed seconds
Timing for main: time 2016-02-05_12:26:13 on domain   3:     .33640 elapsed seconds
Timing for main: time 2016-02-05_12:26:26 on domain   3:     .32201 elapsed seconds
Timing for main: time 2016-02-05_12:26:40 on domain   3:     .32224 elapsed seconds
Timing for main: time 2016-02-05_12:26:20 on domain   4:     .39745 elapsed seconds
Timing for main: time 2016-02-05_12:26:40 on domain   4:     .39586 elapsed seconds
Timing for main: time 2016-02-05_12:26:40 on domain   2:    2.87587 elapsed seconds
Timing for main: time 2016-02-05_12:26:53 on domain   3:     .33616 elapsed seconds
Timing for main: time 2016-02-05_12:27:06 on domain   3:     .32509 elapsed seconds
Timing for main: time 2016-02-05_12:27:20 on domain   3:     .32298 elapsed seconds
Timing for main: time 2016-02-05_12:27:00 on domain   4:     .39853 elapsed seconds
Timing for main: time 2016-02-05_12:27:20 on domain   4:     .39245 elapsed seconds
Timing for main: time 2016-02-05_12:27:20 on domain   2:    2.83908 elapsed seconds
Timing for main: time 2016-02-05_12:27:33 on domain   3:     .33529 elapsed seconds
Timing for main: time 2016-02-05_12:27:46 on domain   3:     .41605 elapsed seconds
Timing for main: time 2016-02-05_12:28:00 on domain   3:     .32178 elapsed seconds
Timing for main: time 2016-02-05_12:27:40 on domain   4:     .39898 elapsed seconds
Timing for main: time 2016-02-05_12:28:00 on domain   4:     .39495 elapsed seconds
Timing for main: time 2016-02-05_12:28:00 on domain   2:    2.93158 elapsed seconds
Timing for main: time 2016-02-05_12:28:00 on domain   1:    9.19038 elapsed seconds
  photolysis_driver: called for domain  1
Timing for main: time 2016-02-05_12:28:13 on domain   3:     .33641 elapsed seconds
Timing for main: time 2016-02-05_12:28:26 on domain   3:     .32196 elapsed seconds
Timing for main: time 2016-02-05_12:28:40 on domain   3:     .32210 elapsed seconds
Timing for main: time 2016-02-05_12:28:20 on domain   4:     .39747 elapsed seconds
Timing for main: time 2016-02-05_12:28:40 on domain   4:     .39327 elapsed seconds
Timing for main: time 2016-02-05_12:28:40 on domain   2:    2.84899 elapsed seconds
Timing for main: time 2016-02-05_12:28:53 on domain   3:     .33566 elapsed seconds
Timing for main: time 2016-02-05_12:29:06 on domain   3:     .32204 elapsed seconds
Timing for main: time 2016-02-05_12:29:20 on domain   3:     .32276 elapsed seconds
Timing for main: time 2016-02-05_12:29:00 on domain   4:     .39790 elapsed seconds
Timing for main: time 2016-02-05_12:29:20 on domain   4:     .39368 elapsed seconds
Timing for main: time 2016-02-05_12:29:20 on domain   2:    2.83652 elapsed seconds
  photolysis_driver: called for domain  2
Timing for main: time 2016-02-05_12:29:33 on domain   3:     .33641 elapsed seconds
Timing for main: time 2016-02-05_12:29:46 on domain   3:     .32222 elapsed seconds
  photolysis_driver: called for domain  3
Timing for main: time 2016-02-05_12:30:00 on domain   3:    2.07222 elapsed seconds
Timing for main: time 2016-02-05_12:29:40 on domain   4:     .39811 elapsed seconds
  photolysis_driver: called for domain  4
Timing for main: time 2016-02-05_12:30:00 on domain   4:    2.35943 elapsed seconds
Timing for main: time 2016-02-05_12:30:00 on domain   2:    8.71270 elapsed seconds
Timing for main: time 2016-02-05_12:30:00 on domain   1:   16.25220 elapsed seconds
Timing for main: time 2016-02-05_12:30:13 on domain   3:     .67429 elapsed seconds
Timing for main: time 2016-02-05_12:30:26 on domain   3:     .31983 elapsed seconds
Timing for main: time 2016-02-05_12:30:40 on domain   3:     .33558 elapsed seconds
Timing for main: time 2016-02-05_12:30:20 on domain   4:     .78429 elapsed seconds
Timing for main: time 2016-02-05_12:30:40 on domain   4:     .39178 elapsed seconds
Timing for main: time 2016-02-05_12:30:40 on domain   2:    4.02037 elapsed seconds
Timing for main: time 2016-02-05_12:30:53 on domain   3:     .33441 elapsed seconds
Timing for main: time 2016-02-05_12:31:06 on domain   3:     .31976 elapsed seconds
Timing for main: time 2016-02-05_12:31:20 on domain   3:     .32026 elapsed seconds
Timing for main: time 2016-02-05_12:31:00 on domain   4:     .39643 elapsed seconds
Timing for main: time 2016-02-05_12:31:20 on domain   4:     .39097 elapsed seconds
Timing for main: time 2016-02-05_12:31:20 on domain   2:    2.82319 elapsed seconds
Timing for main: time 2016-02-05_12:31:33 on domain   3:     .33436 elapsed seconds
Timing for main: time 2016-02-05_12:31:46 on domain   3:     .32089 elapsed seconds
Timing for main: time 2016-02-05_12:32:00 on domain   3:     .32272 elapsed seconds
Timing for main: time 2016-02-05_12:31:40 on domain   4:     .39556 elapsed seconds
Timing for main: time 2016-02-05_12:32:00 on domain   4:     .39377 elapsed seconds
Timing for main: time 2016-02-05_12:32:00 on domain   2:    2.84732 elapsed seconds
Timing for main: time 2016-02-05_12:32:00 on domain   1:   10.54274 elapsed seconds
Timing for main: time 2016-02-05_12:32:13 on domain   3:     .33503 elapsed seconds
Timing for main: time 2016-02-05_12:32:26 on domain   3:     .31889 elapsed seconds
Timing for main: time 2016-02-05_12:32:40 on domain   3:     .32066 elapsed seconds
Timing for main: time 2016-02-05_12:32:20 on domain   4:     .39597 elapsed seconds
Timing for main: time 2016-02-05_12:32:40 on domain   4:     .39250 elapsed seconds
Timing for main: time 2016-02-05_12:32:40 on domain   2:    2.83607 elapsed seconds
Timing for main: time 2016-02-05_12:32:53 on domain   3:     .33564 elapsed seconds
Timing for main: time 2016-02-05_12:33:06 on domain   3:     .31956 elapsed seconds
Timing for main: time 2016-02-05_12:33:20 on domain   3:     .32137 elapsed seconds
Timing for main: time 2016-02-05_12:33:00 on domain   4:     .39644 elapsed seconds
Timing for main: time 2016-02-05_12:33:20 on domain   4:     .39035 elapsed seconds
Timing for main: time 2016-02-05_12:33:20 on domain   2:    2.82582 elapsed seconds
Timing for main: time 2016-02-05_12:33:33 on domain   3:     .33688 elapsed seconds
Timing for main: time 2016-02-05_12:33:46 on domain   3:     .31962 elapsed seconds
Timing for main: time 2016-02-05_12:34:00 on domain   3:     .32026 elapsed seconds
Timing for main: time 2016-02-05_12:33:40 on domain   4:     .39563 elapsed seconds
Timing for main: time 2016-02-05_12:34:00 on domain   4:     .39163 elapsed seconds
Timing for main: time 2016-02-05_12:34:00 on domain   2:    2.82718 elapsed seconds
Timing for main: time 2016-02-05_12:34:00 on domain   1:    9.03666 elapsed seconds
Timing for main: time 2016-02-05_12:34:13 on domain   3:     .33555 elapsed seconds
Timing for main: time 2016-02-05_12:34:26 on domain   3:     .31991 elapsed seconds
Timing for main: time 2016-02-05_12:34:40 on domain   3:     .32212 elapsed seconds
Timing for main: time 2016-02-05_12:34:20 on domain   4:     .39597 elapsed seconds
Timing for main: time 2016-02-05_12:34:40 on domain   4:     .39082 elapsed seconds
Timing for main: time 2016-02-05_12:34:40 on domain   2:    2.84202 elapsed seconds
Timing for main: time 2016-02-05_12:34:53 on domain   3:     .33648 elapsed seconds
Timing for main: time 2016-02-05_12:35:06 on domain   3:     .32026 elapsed seconds
Timing for main: time 2016-02-05_12:35:20 on domain   3:     .32212 elapsed seconds
Timing for main: time 2016-02-05_12:35:00 on domain   4:     .41344 elapsed seconds
Timing for main: time 2016-02-05_12:35:20 on domain   4:     .39127 elapsed seconds
Timing for main: time 2016-02-05_12:35:20 on domain   2:    2.84648 elapsed seconds
Timing for main: time 2016-02-05_12:35:33 on domain   3:     .33530 elapsed seconds
Timing for main: time 2016-02-05_12:35:46 on domain   3:     .33661 elapsed seconds
Timing for main: time 2016-02-05_12:36:00 on domain   3:     .32029 elapsed seconds
Timing for main: time 2016-02-05_12:35:40 on domain   4:     .39549 elapsed seconds
Timing for main: time 2016-02-05_12:36:00 on domain   4:     .39210 elapsed seconds
Timing for main: time 2016-02-05_12:36:00 on domain   2:    2.84241 elapsed seconds
Timing for main: time 2016-02-05_12:36:00 on domain   1:    9.09192 elapsed seconds
Timing for main: time 2016-02-05_12:36:13 on domain   3:     .33812 elapsed seconds
Timing for main: time 2016-02-05_12:36:26 on domain   3:     .32068 elapsed seconds
Timing for main: time 2016-02-05_12:36:40 on domain   3:     .32084 elapsed seconds
Timing for main: time 2016-02-05_12:36:20 on domain   4:     .39496 elapsed seconds
Timing for main: time 2016-02-05_12:36:40 on domain   4:     .39225 elapsed seconds
Timing for main: time 2016-02-05_12:36:40 on domain   2:    2.84313 elapsed seconds
Timing for main: time 2016-02-05_12:36:53 on domain   3:     .33621 elapsed seconds
Timing for main: time 2016-02-05_12:37:06 on domain   3:     .32192 elapsed seconds
Timing for main: time 2016-02-05_12:37:20 on domain   3:     .32195 elapsed seconds
Timing for main: time 2016-02-05_12:37:00 on domain   4:     .39535 elapsed seconds
Timing for main: time 2016-02-05_12:37:20 on domain   4:     .39122 elapsed seconds
Timing for main: time 2016-02-05_12:37:20 on domain   2:    2.84790 elapsed seconds
Timing for main: time 2016-02-05_12:37:33 on domain   3:     .33756 elapsed seconds
Timing for main: time 2016-02-05_12:37:46 on domain   3:     .31917 elapsed seconds
Timing for main: time 2016-02-05_12:38:00 on domain   3:     .32071 elapsed seconds
Timing for main: time 2016-02-05_12:37:40 on domain   4:     .39550 elapsed seconds
Timing for main: time 2016-02-05_12:38:00 on domain   4:     .39057 elapsed seconds
Timing for main: time 2016-02-05_12:38:00 on domain   2:    2.82569 elapsed seconds
Timing for main: time 2016-02-05_12:38:00 on domain   1:    9.06275 elapsed seconds
Timing for main: time 2016-02-05_12:38:13 on domain   3:     .33604 elapsed seconds
Timing for main: time 2016-02-05_12:38:26 on domain   3:     .32518 elapsed seconds
Timing for main: time 2016-02-05_12:38:40 on domain   3:     .32005 elapsed seconds
Timing for main: time 2016-02-05_12:38:20 on domain   4:     .39282 elapsed seconds
Timing for main: time 2016-02-05_12:38:40 on domain   4:     .39061 elapsed seconds
Timing for main: time 2016-02-05_12:38:40 on domain   2:    2.84282 elapsed seconds
Timing for main: time 2016-02-05_12:38:53 on domain   3:     .33538 elapsed seconds
Timing for main: time 2016-02-05_12:39:06 on domain   3:     .32037 elapsed seconds
Timing for main: time 2016-02-05_12:39:20 on domain   3:     .32117 elapsed seconds
Timing for main: time 2016-02-05_12:39:00 on domain   4:     .39498 elapsed seconds
Timing for main: time 2016-02-05_12:39:20 on domain   4:     .39202 elapsed seconds
Timing for main: time 2016-02-05_12:39:20 on domain   2:    2.82579 elapsed seconds
Timing for main: time 2016-02-05_12:39:33 on domain   3:     .33751 elapsed seconds
Timing for main: time 2016-02-05_12:39:46 on domain   3:     .32125 elapsed seconds
Timing for main: time 2016-02-05_12:40:00 on domain   3:     .32234 elapsed seconds
Timing for main: time 2016-02-05_12:39:40 on domain   4:     .39625 elapsed seconds
Timing for main: time 2016-02-05_12:40:00 on domain   4:     .40883 elapsed seconds
Timing for main: time 2016-02-05_12:40:00 on domain   2:    2.84727 elapsed seconds
Timing for main: time 2016-02-05_12:40:00 on domain   1:    9.06187 elapsed seconds
Timing for main: time 2016-02-05_12:40:13 on domain   3:     .33564 elapsed seconds
Timing for main: time 2016-02-05_12:40:26 on domain   3:     .32040 elapsed seconds
Timing for main: time 2016-02-05_12:40:40 on domain   3:     .31968 elapsed seconds
Timing for main: time 2016-02-05_12:40:20 on domain   4:     .39520 elapsed seconds
Timing for main: time 2016-02-05_12:40:40 on domain   4:     .39332 elapsed seconds
Timing for main: time 2016-02-05_12:40:40 on domain   2:    2.83920 elapsed seconds
Timing for main: time 2016-02-05_12:40:53 on domain   3:     .35208 elapsed seconds
Timing for main: time 2016-02-05_12:41:06 on domain   3:     .31944 elapsed seconds
Timing for main: time 2016-02-05_12:41:20 on domain   3:     .32146 elapsed seconds
Timing for main: time 2016-02-05_12:41:00 on domain   4:     .39511 elapsed seconds
Timing for main: time 2016-02-05_12:41:20 on domain   4:     .39151 elapsed seconds
Timing for main: time 2016-02-05_12:41:20 on domain   2:    2.84385 elapsed seconds
Timing for main: time 2016-02-05_12:41:33 on domain   3:     .33782 elapsed seconds
Timing for main: time 2016-02-05_12:41:46 on domain   3:     .31987 elapsed seconds
Timing for main: time 2016-02-05_12:42:00 on domain   3:     .32237 elapsed seconds
Timing for main: time 2016-02-05_12:41:40 on domain   4:     .39747 elapsed seconds
Timing for main: time 2016-02-05_12:42:00 on domain   4:     .38906 elapsed seconds
Timing for main: time 2016-02-05_12:42:00 on domain   2:    2.82779 elapsed seconds
Timing for main: time 2016-02-05_12:42:00 on domain   1:    9.07161 elapsed seconds
Timing for main: time 2016-02-05_12:42:13 on domain   3:     .33624 elapsed seconds
Timing for main: time 2016-02-05_12:42:26 on domain   3:     .32239 elapsed seconds
Timing for main: time 2016-02-05_12:42:40 on domain   3:     .32031 elapsed seconds
Timing for main: time 2016-02-05_12:42:20 on domain   4:     .39527 elapsed seconds
Timing for main: time 2016-02-05_12:42:40 on domain   4:     .39077 elapsed seconds
Timing for main: time 2016-02-05_12:42:40 on domain   2:    2.85803 elapsed seconds
Timing for main: time 2016-02-05_12:42:53 on domain   3:     .33595 elapsed seconds
Timing for main: time 2016-02-05_12:43:06 on domain   3:     .32057 elapsed seconds
Timing for main: time 2016-02-05_12:43:20 on domain   3:     .32448 elapsed seconds
Timing for main: time 2016-02-05_12:43:00 on domain   4:     .39539 elapsed seconds
Timing for main: time 2016-02-05_12:43:20 on domain   4:     .39160 elapsed seconds
Timing for main: time 2016-02-05_12:43:20 on domain   2:    2.83116 elapsed seconds
Timing for main: time 2016-02-05_12:43:33 on domain   3:     .33648 elapsed seconds
Timing for main: time 2016-02-05_12:43:46 on domain   3:     .32114 elapsed seconds
Timing for main: time 2016-02-05_12:44:00 on domain   3:     .32195 elapsed seconds
Timing for main: time 2016-02-05_12:43:40 on domain   4:     .39576 elapsed seconds
Timing for main: time 2016-02-05_12:44:00 on domain   4:     .39069 elapsed seconds
Timing for main: time 2016-02-05_12:44:00 on domain   2:    2.82876 elapsed seconds
Timing for main: time 2016-02-05_12:44:00 on domain   1:    9.06478 elapsed seconds
Timing for main: time 2016-02-05_12:44:13 on domain   3:     .33617 elapsed seconds
Timing for main: time 2016-02-05_12:44:26 on domain   3:     .32038 elapsed seconds
Timing for main: time 2016-02-05_12:44:40 on domain   3:     .32143 elapsed seconds
Timing for main: time 2016-02-05_12:44:20 on domain   4:     .39493 elapsed seconds
Timing for main: time 2016-02-05_12:44:40 on domain   4:     .39089 elapsed seconds
Timing for main: time 2016-02-05_12:44:40 on domain   2:    2.86534 elapsed seconds
Timing for main: time 2016-02-05_12:44:53 on domain   3:     .33623 elapsed seconds
Timing for main: time 2016-02-05_12:45:06 on domain   3:     .32610 elapsed seconds
Timing for main: time 2016-02-05_12:45:20 on domain   3:     .31926 elapsed seconds
Timing for main: time 2016-02-05_12:45:00 on domain   4:     .41473 elapsed seconds
Timing for main: time 2016-02-05_12:45:20 on domain   4:     .39288 elapsed seconds
Timing for main: time 2016-02-05_12:45:20 on domain   2:    2.85389 elapsed seconds
Timing for main: time 2016-02-05_12:45:33 on domain   3:     .33689 elapsed seconds
Timing for main: time 2016-02-05_12:45:46 on domain   3:     .32050 elapsed seconds
Timing for main: time 2016-02-05_12:46:00 on domain   3:     .33576 elapsed seconds
Timing for main: time 2016-02-05_12:45:40 on domain   4:     .39666 elapsed seconds
Timing for main: time 2016-02-05_12:46:00 on domain   4:     .39156 elapsed seconds
Timing for main: time 2016-02-05_12:46:00 on domain   2:    2.84287 elapsed seconds
Timing for main: time 2016-02-05_12:46:00 on domain   1:    9.10938 elapsed seconds
Timing for main: time 2016-02-05_12:46:13 on domain   3:     .43060 elapsed seconds
Timing for main: time 2016-02-05_12:46:26 on domain   3:     .33486 elapsed seconds
Timing for main: time 2016-02-05_12:46:40 on domain   3:     .32160 elapsed seconds
Timing for main: time 2016-02-05_12:46:20 on domain   4:     .39493 elapsed seconds
Timing for main: time 2016-02-05_12:46:40 on domain   4:     .39051 elapsed seconds
Timing for main: time 2016-02-05_12:46:40 on domain   2:    2.94713 elapsed seconds
Timing for main: time 2016-02-05_12:46:53 on domain   3:     .33521 elapsed seconds
Timing for main: time 2016-02-05_12:47:06 on domain   3:     .32004 elapsed seconds
Timing for main: time 2016-02-05_12:47:20 on domain   3:     .31927 elapsed seconds
Timing for main: time 2016-02-05_12:47:00 on domain   4:     .39571 elapsed seconds
Timing for main: time 2016-02-05_12:47:20 on domain   4:     .39184 elapsed seconds
Timing for main: time 2016-02-05_12:47:20 on domain   2:    2.82635 elapsed seconds
Timing for main: time 2016-02-05_12:47:33 on domain   3:     .33447 elapsed seconds
Timing for main: time 2016-02-05_12:47:46 on domain   3:     .32090 elapsed seconds
Timing for main: time 2016-02-05_12:48:00 on domain   3:     .32722 elapsed seconds
Timing for main: time 2016-02-05_12:47:40 on domain   4:     .39474 elapsed seconds
Timing for main: time 2016-02-05_12:48:00 on domain   4:     .39124 elapsed seconds
Timing for main: time 2016-02-05_12:48:00 on domain   2:    2.85215 elapsed seconds
Timing for main: time 2016-02-05_12:48:00 on domain   1:    9.18563 elapsed seconds
Timing for main: time 2016-02-05_12:48:13 on domain   3:     .33561 elapsed seconds
Timing for main: time 2016-02-05_12:48:26 on domain   3:     .32048 elapsed seconds
Timing for main: time 2016-02-05_12:48:40 on domain   3:     .32120 elapsed seconds
Timing for main: time 2016-02-05_12:48:20 on domain   4:     .39614 elapsed seconds
Timing for main: time 2016-02-05_12:48:40 on domain   4:     .39031 elapsed seconds
Timing for main: time 2016-02-05_12:48:40 on domain   2:    2.83854 elapsed seconds
Timing for main: time 2016-02-05_12:48:53 on domain   3:     .33594 elapsed seconds
Timing for main: time 2016-02-05_12:49:06 on domain   3:     .32352 elapsed seconds
Timing for main: time 2016-02-05_12:49:20 on domain   3:     .32135 elapsed seconds
Timing for main: time 2016-02-05_12:49:00 on domain   4:     .39586 elapsed seconds
Timing for main: time 2016-02-05_12:49:20 on domain   4:     .39039 elapsed seconds
Timing for main: time 2016-02-05_12:49:20 on domain   2:    2.82824 elapsed seconds
Timing for main: time 2016-02-05_12:49:33 on domain   3:     .33549 elapsed seconds
Timing for main: time 2016-02-05_12:49:46 on domain   3:     .32074 elapsed seconds
Timing for main: time 2016-02-05_12:50:00 on domain   3:     .32108 elapsed seconds
Timing for main: time 2016-02-05_12:49:40 on domain   4:     .39500 elapsed seconds
Timing for main: time 2016-02-05_12:50:00 on domain   4:     .41271 elapsed seconds
Timing for main: time 2016-02-05_12:50:00 on domain   2:    2.84824 elapsed seconds
Timing for main: time 2016-02-05_12:50:00 on domain   1:    9.06059 elapsed seconds
Timing for main: time 2016-02-05_12:50:13 on domain   3:     .33543 elapsed seconds
Timing for main: time 2016-02-05_12:50:26 on domain   3:     .32053 elapsed seconds
Timing for main: time 2016-02-05_12:50:40 on domain   3:     .32035 elapsed seconds
Timing for main: time 2016-02-05_12:50:20 on domain   4:     .39549 elapsed seconds
Timing for main: time 2016-02-05_12:50:40 on domain   4:     .39033 elapsed seconds
Timing for main: time 2016-02-05_12:50:40 on domain   2:    2.83651 elapsed seconds
Timing for main: time 2016-02-05_12:50:53 on domain   3:     .33565 elapsed seconds
Timing for main: time 2016-02-05_12:51:06 on domain   3:     .33628 elapsed seconds
Timing for main: time 2016-02-05_12:51:20 on domain   3:     .32056 elapsed seconds
Timing for main: time 2016-02-05_12:51:00 on domain   4:     .39510 elapsed seconds
Timing for main: time 2016-02-05_12:51:20 on domain   4:     .49021 elapsed seconds
Timing for main: time 2016-02-05_12:51:20 on domain   2:    2.94229 elapsed seconds
Timing for main: time 2016-02-05_12:51:33 on domain   3:     .33949 elapsed seconds
Timing for main: time 2016-02-05_12:51:46 on domain   3:     .32079 elapsed seconds
Timing for main: time 2016-02-05_12:52:00 on domain   3:     .32120 elapsed seconds
Timing for main: time 2016-02-05_12:51:40 on domain   4:     .39214 elapsed seconds
Timing for main: time 2016-02-05_12:52:00 on domain   4:     .39041 elapsed seconds
Timing for main: time 2016-02-05_12:52:00 on domain   2:    2.82874 elapsed seconds
Timing for main: time 2016-02-05_12:52:00 on domain   1:    9.15405 elapsed seconds
Timing for main: time 2016-02-05_12:52:13 on domain   3:     .33517 elapsed seconds
Timing for main: time 2016-02-05_12:52:26 on domain   3:     .32062 elapsed seconds
Timing for main: time 2016-02-05_12:52:40 on domain   3:     .32253 elapsed seconds
Timing for main: time 2016-02-05_12:52:20 on domain   4:     .39536 elapsed seconds
Timing for main: time 2016-02-05_12:52:40 on domain   4:     .39068 elapsed seconds
Timing for main: time 2016-02-05_12:52:40 on domain   2:    2.83835 elapsed seconds
Timing for main: time 2016-02-05_12:52:53 on domain   3:     .33552 elapsed seconds
Timing for main: time 2016-02-05_12:53:06 on domain   3:     .32096 elapsed seconds
Timing for main: time 2016-02-05_12:53:20 on domain   3:     .32104 elapsed seconds
Timing for main: time 2016-02-05_12:53:00 on domain   4:     .47446 elapsed seconds
Timing for main: time 2016-02-05_12:53:20 on domain   4:     .39068 elapsed seconds
Timing for main: time 2016-02-05_12:53:20 on domain   2:    2.92651 elapsed seconds
Timing for main: time 2016-02-05_12:53:33 on domain   3:     .33575 elapsed seconds
Timing for main: time 2016-02-05_12:53:46 on domain   3:     .32079 elapsed seconds
Timing for main: time 2016-02-05_12:54:00 on domain   3:     .32160 elapsed seconds
Timing for main: time 2016-02-05_12:53:40 on domain   4:     .39744 elapsed seconds
Timing for main: time 2016-02-05_12:54:00 on domain   4:     .39004 elapsed seconds
Timing for main: time 2016-02-05_12:54:00 on domain   2:    2.82659 elapsed seconds
Timing for main: time 2016-02-05_12:54:00 on domain   1:    9.15091 elapsed seconds
Timing for main: time 2016-02-05_12:54:13 on domain   3:     .34266 elapsed seconds
Timing for main: time 2016-02-05_12:54:26 on domain   3:     .32104 elapsed seconds
Timing for main: time 2016-02-05_12:54:40 on domain   3:     .32161 elapsed seconds
Timing for main: time 2016-02-05_12:54:20 on domain   4:     .39545 elapsed seconds
Timing for main: time 2016-02-05_12:54:40 on domain   4:     .39189 elapsed seconds
Timing for main: time 2016-02-05_12:54:40 on domain   2:    2.84382 elapsed seconds
Timing for main: time 2016-02-05_12:54:53 on domain   3:     .33666 elapsed seconds
Timing for main: time 2016-02-05_12:55:06 on domain   3:     .31949 elapsed seconds
Timing for main: time 2016-02-05_12:55:20 on domain   3:     .32128 elapsed seconds
Timing for main: time 2016-02-05_12:55:00 on domain   4:     .41306 elapsed seconds
Timing for main: time 2016-02-05_12:55:20 on domain   4:     .39161 elapsed seconds
Timing for main: time 2016-02-05_12:55:20 on domain   2:    2.84544 elapsed seconds
Timing for main: time 2016-02-05_12:55:33 on domain   3:     .33702 elapsed seconds
Timing for main: time 2016-02-05_12:55:46 on domain   3:     .32162 elapsed seconds
Timing for main: time 2016-02-05_12:56:00 on domain   3:     .32300 elapsed seconds
Timing for main: time 2016-02-05_12:55:40 on domain   4:     .39500 elapsed seconds
Timing for main: time 2016-02-05_12:56:00 on domain   4:     .39150 elapsed seconds
Timing for main: time 2016-02-05_12:56:00 on domain   2:    2.83101 elapsed seconds
Timing for main: time 2016-02-05_12:56:00 on domain   1:    9.06905 elapsed seconds
Timing for main: time 2016-02-05_12:56:13 on domain   3:     .35149 elapsed seconds
Timing for main: time 2016-02-05_12:56:26 on domain   3:     .31951 elapsed seconds
Timing for main: time 2016-02-05_12:56:40 on domain   3:     .32172 elapsed seconds
Timing for main: time 2016-02-05_12:56:20 on domain   4:     .39455 elapsed seconds
Timing for main: time 2016-02-05_12:56:40 on domain   4:     .39042 elapsed seconds
Timing for main: time 2016-02-05_12:56:40 on domain   2:    2.85214 elapsed seconds
Timing for main: time 2016-02-05_12:56:53 on domain   3:     .33807 elapsed seconds
Timing for main: time 2016-02-05_12:57:06 on domain   3:     .32111 elapsed seconds
Timing for main: time 2016-02-05_12:57:20 on domain   3:     .32379 elapsed seconds
Timing for main: time 2016-02-05_12:57:00 on domain   4:     .39508 elapsed seconds
Timing for main: time 2016-02-05_12:57:20 on domain   4:     .39155 elapsed seconds
Timing for main: time 2016-02-05_12:57:20 on domain   2:    2.83142 elapsed seconds
Timing for main: time 2016-02-05_12:57:33 on domain   3:     .36201 elapsed seconds
Timing for main: time 2016-02-05_12:57:46 on domain   3:     .32015 elapsed seconds
Timing for main: time 2016-02-05_12:58:00 on domain   3:     .41926 elapsed seconds
Timing for main: time 2016-02-05_12:57:40 on domain   4:     .39519 elapsed seconds
Timing for main: time 2016-02-05_12:58:00 on domain   4:     .39079 elapsed seconds
Timing for main: time 2016-02-05_12:58:00 on domain   2:    2.94823 elapsed seconds
Timing for main: time 2016-02-05_12:58:00 on domain   1:    9.17930 elapsed seconds
  photolysis_driver: called for domain  1
Timing for main: time 2016-02-05_12:58:13 on domain   3:     .33522 elapsed seconds
Timing for main: time 2016-02-05_12:58:26 on domain   3:     .32127 elapsed seconds
Timing for main: time 2016-02-05_12:58:40 on domain   3:     .32157 elapsed seconds
Timing for main: time 2016-02-05_12:58:20 on domain   4:     .39509 elapsed seconds
Timing for main: time 2016-02-05_12:58:40 on domain   4:     .39141 elapsed seconds
Timing for main: time 2016-02-05_12:58:40 on domain   2:    2.85292 elapsed seconds
Timing for main: time 2016-02-05_12:58:53 on domain   3:     .33816 elapsed seconds
Timing for main: time 2016-02-05_12:59:06 on domain   3:     .32145 elapsed seconds
Timing for main: time 2016-02-05_12:59:20 on domain   3:     .32334 elapsed seconds
Timing for main: time 2016-02-05_12:59:00 on domain   4:     .39517 elapsed seconds
Timing for main: time 2016-02-05_12:59:20 on domain   4:     .39070 elapsed seconds
Timing for main: time 2016-02-05_12:59:20 on domain   2:    2.83177 elapsed seconds
  photolysis_driver: called for domain  2
Timing for main: time 2016-02-05_12:59:33 on domain   3:     .33505 elapsed seconds
Timing for main: time 2016-02-05_12:59:46 on domain   3:     .32064 elapsed seconds
  photolysis_driver: called for domain  3
Timing for main: time 2016-02-05_13:00:00 on domain   3:    2.07884 elapsed seconds
Timing for main: time 2016-02-05_12:59:40 on domain   4:     .39518 elapsed seconds
  photolysis_driver: called for domain  4
Timing for main: time 2016-02-05_13:00:00 on domain   4:    2.36314 elapsed seconds
Timing for main: time 2016-02-05_13:00:00 on domain   2:    8.71150 elapsed seconds
Timing for main: time 2016-02-05_13:00:00 on domain   1:   16.25123 elapsed seconds
Timing for Writing wrfout_d01_2016-02-05_13:00:00 for domain        1:    1.22543 elapsed seconds
  HOURLY EMISSIONS UPDATE TIME     3600.0        .0
 mediation_integrate: med_read_wrf_chem_emissions: Read emissions for time 2016-02-05_13:00:00
 **WARNING** Time in input file not being checked **WARNING**
Timing for Writing wrfout_d02_2016-02-05_13:00:00 for domain        2:    1.82616 elapsed seconds
Timing for Writing wrfout_d03_2016-02-05_13:00:00 for domain        3:    3.01396 elapsed seconds
Timing for main: time 2016-02-05_13:00:13 on domain   3:    3.70984 elapsed seconds
Timing for main: time 2016-02-05_13:00:26 on domain   3:     .34617 elapsed seconds
Timing for main: time 2016-02-05_13:00:40 on domain   3:     .34932 elapsed seconds
Timing for Writing wrfout_d04_2016-02-05_13:00:00 for domain        4:    2.25292 elapsed seconds
Timing for main: time 2016-02-05_13:00:20 on domain   4:    3.07188 elapsed seconds
Timing for main: time 2016-02-05_13:00:40 on domain   4:     .42180 elapsed seconds
Timing for main: time 2016-02-05_13:00:40 on domain   2:   11.28776 elapsed seconds
Timing for main: time 2016-02-05_13:00:53 on domain   3:     .34093 elapsed seconds
Timing for main: time 2016-02-05_13:01:06 on domain   3:     .31890 elapsed seconds
Timing for main: time 2016-02-05_13:01:20 on domain   3:     .33621 elapsed seconds
Timing for main: time 2016-02-05_13:01:00 on domain   4:     .39511 elapsed seconds
Timing for main: time 2016-02-05_13:01:20 on domain   4:     .39125 elapsed seconds
Timing for main: time 2016-02-05_13:01:20 on domain   2:    2.87720 elapsed seconds
Timing for main: time 2016-02-05_13:01:33 on domain   3:     .33525 elapsed seconds
Timing for main: time 2016-02-05_13:01:46 on domain   3:     .32213 elapsed seconds
Timing for main: time 2016-02-05_13:02:00 on domain   3:     .32242 elapsed seconds
Timing for main: time 2016-02-05_13:01:40 on domain   4:     .39620 elapsed seconds
Timing for main: time 2016-02-05_13:02:00 on domain   4:     .39006 elapsed seconds
Timing for main: time 2016-02-05_13:02:00 on domain   2:    2.82727 elapsed seconds
Timing for main: time 2016-02-05_13:02:00 on domain   1:   20.94431 elapsed seconds
Timing for main: time 2016-02-05_13:02:13 on domain   3:     .33715 elapsed seconds
Timing for main: time 2016-02-05_13:02:26 on domain   3:     .32226 elapsed seconds
Timing for main: time 2016-02-05_13:02:40 on domain   3:     .32098 elapsed seconds
Timing for main: time 2016-02-05_13:02:20 on domain   4:     .39498 elapsed seconds
Timing for main: time 2016-02-05_13:02:40 on domain   4:     .39009 elapsed seconds
Timing for main: time 2016-02-05_13:02:40 on domain   2:    2.84136 elapsed seconds
Timing for main: time 2016-02-05_13:02:53 on domain   3:     .33564 elapsed seconds
Timing for main: time 2016-02-05_13:03:06 on domain   3:     .32192 elapsed seconds
Timing for main: time 2016-02-05_13:03:20 on domain   3:     .32234 elapsed seconds
Timing for main: time 2016-02-05_13:03:00 on domain   4:     .39608 elapsed seconds
Timing for main: time 2016-02-05_13:03:20 on domain   4:     .39707 elapsed seconds
Timing for main: time 2016-02-05_13:03:20 on domain   2:    2.83524 elapsed seconds
Timing for main: time 2016-02-05_13:03:33 on domain   3:     .33575 elapsed seconds
Timing for main: time 2016-02-05_13:03:46 on domain   3:     .32391 elapsed seconds
Timing for main: time 2016-02-05_13:04:00 on domain   3:     .32189 elapsed seconds
Timing for main: time 2016-02-05_13:03:40 on domain   4:     .39680 elapsed seconds
Timing for main: time 2016-02-05_13:04:00 on domain   4:     .39164 elapsed seconds
Timing for main: time 2016-02-05_13:04:00 on domain   2:    2.84946 elapsed seconds
Timing for main: time 2016-02-05_13:04:00 on domain   1:    9.07315 elapsed seconds
Timing for main: time 2016-02-05_13:04:13 on domain   3:     .33589 elapsed seconds
Timing for main: time 2016-02-05_13:04:26 on domain   3:     .32162 elapsed seconds
Timing for main: time 2016-02-05_13:04:40 on domain   3:     .32022 elapsed seconds
Timing for main: time 2016-02-05_13:04:20 on domain   4:     .39694 elapsed seconds
Timing for main: time 2016-02-05_13:04:40 on domain   4:     .39102 elapsed seconds
Timing for main: time 2016-02-05_13:04:40 on domain   2:    2.84247 elapsed seconds
Timing for main: time 2016-02-05_13:04:53 on domain   3:     .33477 elapsed seconds
Timing for main: time 2016-02-05_13:05:06 on domain   3:     .32262 elapsed seconds
Timing for main: time 2016-02-05_13:05:20 on domain   3:     .32276 elapsed seconds
Timing for main: time 2016-02-05_13:05:00 on domain   4:     .41286 elapsed seconds
Timing for main: time 2016-02-05_13:05:20 on domain   4:     .39178 elapsed seconds
Timing for main: time 2016-02-05_13:05:20 on domain   2:    2.84594 elapsed seconds
Timing for main: time 2016-02-05_13:05:33 on domain   3:     .33597 elapsed seconds
Timing for main: time 2016-02-05_13:05:46 on domain   3:     .32130 elapsed seconds
Timing for main: time 2016-02-05_13:06:00 on domain   3:     .32210 elapsed seconds
Timing for main: time 2016-02-05_13:05:40 on domain   4:     .39525 elapsed seconds
Timing for main: time 2016-02-05_13:06:00 on domain   4:     .39272 elapsed seconds
Timing for main: time 2016-02-05_13:06:00 on domain   2:    2.82839 elapsed seconds
Timing for main: time 2016-02-05_13:06:00 on domain   1:    9.07538 elapsed seconds
Timing for main: time 2016-02-05_13:06:13 on domain   3:     .33627 elapsed seconds
Timing for main: time 2016-02-05_13:06:26 on domain   3:     .34749 elapsed seconds
Timing for main: time 2016-02-05_13:06:40 on domain   3:     .32210 elapsed seconds
Timing for main: time 2016-02-05_13:06:20 on domain   4:     .39527 elapsed seconds
Timing for main: time 2016-02-05_13:06:40 on domain   4:     .39086 elapsed seconds
Timing for main: time 2016-02-05_13:06:40 on domain   2:    2.97689 elapsed seconds
Timing for main: time 2016-02-05_13:06:53 on domain   3:     .33630 elapsed seconds
Timing for main: time 2016-02-05_13:07:06 on domain   3:     .32202 elapsed seconds
Timing for main: time 2016-02-05_13:07:20 on domain   3:     .32047 elapsed seconds
Timing for main: time 2016-02-05_13:07:00 on domain   4:     .39591 elapsed seconds
Timing for main: time 2016-02-05_13:07:20 on domain   4:     .39032 elapsed seconds
Timing for main: time 2016-02-05_13:07:20 on domain   2:    2.82776 elapsed seconds
Timing for main: time 2016-02-05_13:07:33 on domain   3:     .34908 elapsed seconds
Timing for main: time 2016-02-05_13:07:46 on domain   3:     .31438 elapsed seconds
Timing for main: time 2016-02-05_13:08:00 on domain   3:     .32188 elapsed seconds
Timing for main: time 2016-02-05_13:07:40 on domain   4:     .39507 elapsed seconds
Timing for main: time 2016-02-05_13:08:00 on domain   4:     .38976 elapsed seconds
Timing for main: time 2016-02-05_13:08:00 on domain   2:    2.83286 elapsed seconds
Timing for main: time 2016-02-05_13:08:00 on domain   1:    9.18353 elapsed seconds
Timing for main: time 2016-02-05_13:08:13 on domain   3:     .33697 elapsed seconds
Timing for main: time 2016-02-05_13:08:26 on domain   3:     .32057 elapsed seconds
Timing for main: time 2016-02-05_13:08:40 on domain   3:     .32178 elapsed seconds
Timing for main: time 2016-02-05_13:08:20 on domain   4:     .39656 elapsed seconds
Timing for main: time 2016-02-05_13:08:40 on domain   4:     .39051 elapsed seconds
Timing for main: time 2016-02-05_13:08:40 on domain   2:    2.84236 elapsed seconds
Timing for main: time 2016-02-05_13:08:53 on domain   3:     .33753 elapsed seconds
Timing for main: time 2016-02-05_13:09:06 on domain   3:     .32536 elapsed seconds
Timing for main: time 2016-02-05_13:09:20 on domain   3:     .32093 elapsed seconds
Timing for main: time 2016-02-05_13:09:00 on domain   4:     .39539 elapsed seconds
Timing for main: time 2016-02-05_13:09:20 on domain   4:     .38979 elapsed seconds
Timing for main: time 2016-02-05_13:09:20 on domain   2:    2.84840 elapsed seconds
Timing for main: time 2016-02-05_13:09:33 on domain   3:     .33503 elapsed seconds
Timing for main: time 2016-02-05_13:09:46 on domain   3:     .42417 elapsed seconds
Timing for main: time 2016-02-05_13:10:00 on domain   3:     .32283 elapsed seconds
Timing for main: time 2016-02-05_13:09:40 on domain   4:     .39465 elapsed seconds
Timing for main: time 2016-02-05_13:10:00 on domain   4:     .41464 elapsed seconds
Timing for main: time 2016-02-05_13:10:00 on domain   2:    2.95407 elapsed seconds
Timing for main: time 2016-02-05_13:10:00 on domain   1:    9.19006 elapsed seconds
Timing for main: time 2016-02-05_13:10:13 on domain   3:     .33808 elapsed seconds
Timing for main: time 2016-02-05_13:10:26 on domain   3:     .32052 elapsed seconds
Timing for main: time 2016-02-05_13:10:40 on domain   3:     .32430 elapsed seconds
Timing for main: time 2016-02-05_13:10:20 on domain   4:     .39541 elapsed seconds
Timing for main: time 2016-02-05_13:10:40 on domain   4:     .38942 elapsed seconds
Timing for main: time 2016-02-05_13:10:40 on domain   2:    2.84319 elapsed seconds
Timing for main: time 2016-02-05_13:10:53 on domain   3:     .33602 elapsed seconds
Timing for main: time 2016-02-05_13:11:06 on domain   3:     .32169 elapsed seconds
Timing for main: time 2016-02-05_13:11:20 on domain   3:     .32280 elapsed seconds
Timing for main: time 2016-02-05_13:11:00 on domain   4:     .39443 elapsed seconds
Timing for main: time 2016-02-05_13:11:20 on domain   4:     .39078 elapsed seconds
Timing for main: time 2016-02-05_13:11:20 on domain   2:    2.82868 elapsed seconds
Timing for main: time 2016-02-05_13:11:33 on domain   3:     .35228 elapsed seconds
Timing for main: time 2016-02-05_13:11:46 on domain   3:     .32304 elapsed seconds
Timing for main: time 2016-02-05_13:12:00 on domain   3:     .32158 elapsed seconds
Timing for main: time 2016-02-05_13:11:40 on domain   4:     .39563 elapsed seconds
Timing for main: time 2016-02-05_13:12:00 on domain   4:     .39010 elapsed seconds
Timing for main: time 2016-02-05_13:12:00 on domain   2:    2.84449 elapsed seconds
Timing for main: time 2016-02-05_13:12:00 on domain   1:    9.07447 elapsed seconds
Timing for main: time 2016-02-05_13:12:13 on domain   3:     .33749 elapsed seconds
Timing for main: time 2016-02-05_13:12:26 on domain   3:     .32164 elapsed seconds
Timing for main: time 2016-02-05_13:12:40 on domain   3:     .32273 elapsed seconds
Timing for main: time 2016-02-05_13:12:20 on domain   4:     .39791 elapsed seconds
Timing for main: time 2016-02-05_13:12:40 on domain   4:     .38980 elapsed seconds
Timing for main: time 2016-02-05_13:12:40 on domain   2:    2.84456 elapsed seconds
Timing for main: time 2016-02-05_13:12:53 on domain   3:     .35249 elapsed seconds
Timing for main: time 2016-02-05_13:13:06 on domain   3:     .32373 elapsed seconds
Timing for main: time 2016-02-05_13:13:20 on domain   3:     .32108 elapsed seconds
Timing for main: time 2016-02-05_13:13:00 on domain   4:     .39509 elapsed seconds
Timing for main: time 2016-02-05_13:13:20 on domain   4:     .39143 elapsed seconds
Timing for main: time 2016-02-05_13:13:20 on domain   2:    2.84673 elapsed seconds
Timing for main: time 2016-02-05_13:13:33 on domain   3:     .33600 elapsed seconds
Timing for main: time 2016-02-05_13:13:46 on domain   3:     .32188 elapsed seconds
Timing for main: time 2016-02-05_13:14:00 on domain   3:     .32138 elapsed seconds
Timing for main: time 2016-02-05_13:13:40 on domain   4:     .39500 elapsed seconds
Timing for main: time 2016-02-05_13:14:00 on domain   4:     .39001 elapsed seconds
Timing for main: time 2016-02-05_13:14:00 on domain   2:    2.82811 elapsed seconds
Timing for main: time 2016-02-05_13:14:00 on domain   1:    9.06453 elapsed seconds
Timing for main: time 2016-02-05_13:14:13 on domain   3:     .33714 elapsed seconds
Timing for main: time 2016-02-05_13:14:26 on domain   3:     .32075 elapsed seconds
Timing for main: time 2016-02-05_13:14:40 on domain   3:     .32244 elapsed seconds
Timing for main: time 2016-02-05_13:14:20 on domain   4:     .45386 elapsed seconds
Timing for main: time 2016-02-05_13:14:40 on domain   4:     .39034 elapsed seconds
Timing for main: time 2016-02-05_13:14:40 on domain   2:    2.92480 elapsed seconds
Timing for main: time 2016-02-05_13:14:53 on domain   3:     .33615 elapsed seconds
Timing for main: time 2016-02-05_13:15:06 on domain   3:     .32215 elapsed seconds
Timing for main: time 2016-02-05_13:15:20 on domain   3:     .32201 elapsed seconds
Timing for main: time 2016-02-05_13:15:00 on domain   4:     .41276 elapsed seconds
Timing for main: time 2016-02-05_13:15:20 on domain   4:     .39035 elapsed seconds
Timing for main: time 2016-02-05_13:15:20 on domain   2:    2.84379 elapsed seconds
Timing for main: time 2016-02-05_13:15:33 on domain   3:     .33846 elapsed seconds
Timing for main: time 2016-02-05_13:15:46 on domain   3:     .32135 elapsed seconds
Timing for main: time 2016-02-05_13:16:00 on domain   3:     .32204 elapsed seconds
Timing for main: time 2016-02-05_13:15:40 on domain   4:     .39493 elapsed seconds
Timing for main: time 2016-02-05_13:16:00 on domain   4:     .39011 elapsed seconds
Timing for main: time 2016-02-05_13:16:00 on domain   2:    2.82886 elapsed seconds
Timing for main: time 2016-02-05_13:16:00 on domain   1:    9.14393 elapsed seconds
Timing for main: time 2016-02-05_13:16:13 on domain   3:     .33272 elapsed seconds
Timing for main: time 2016-02-05_13:16:26 on domain   3:     .32231 elapsed seconds
Timing for main: time 2016-02-05_13:16:40 on domain   3:     .34126 elapsed seconds
Timing for main: time 2016-02-05_13:16:20 on domain   4:     .39491 elapsed seconds
Timing for main: time 2016-02-05_13:16:40 on domain   4:     .39116 elapsed seconds
Timing for main: time 2016-02-05_13:16:40 on domain   2:    2.94282 elapsed seconds
Timing for main: time 2016-02-05_13:16:53 on domain   3:     .33600 elapsed seconds
Timing for main: time 2016-02-05_13:17:06 on domain   3:     .32326 elapsed seconds
Timing for main: time 2016-02-05_13:17:20 on domain   3:     .32328 elapsed seconds
Timing for main: time 2016-02-05_13:17:00 on domain   4:     .39552 elapsed seconds
Timing for main: time 2016-02-05_13:17:20 on domain   4:     .39039 elapsed seconds
Timing for main: time 2016-02-05_13:17:20 on domain   2:    2.83188 elapsed seconds
[...]
Timing for main: time 2016-02-05_17:36:00 on domain   2:    2.84605 elapsed seconds
Timing for main: time 2016-02-05_17:36:00 on domain   1:    9.10285 elapsed seconds
Timing for main: time 2016-02-05_17:36:13 on domain   3:     .33566 elapsed seconds
Timing for main: time 2016-02-05_17:36:26 on domain   3:     .32040 elapsed seconds
Timing for main: time 2016-02-05_17:36:40 on domain   3:     .32458 elapsed seconds
Timing for main: time 2016-02-05_17:36:20 on domain   4:     .39633 elapsed seconds
Timing for main: time 2016-02-05_17:36:40 on domain   4:     .39186 elapsed seconds
Timing for main: time 2016-02-05_17:36:40 on domain   2:    2.84452 elapsed seconds
Timing for main: time 2016-02-05_17:36:53 on domain   3:     .33553 elapsed seconds
Timing for main: time 2016-02-05_17:37:06 on domain   3:     .32100 elapsed seconds
Timing for main: time 2016-02-05_17:37:20 on domain   3:     .33574 elapsed seconds
Timing for main: time 2016-02-05_17:37:00 on domain   4:     .39567 elapsed seconds
Timing for main: time 2016-02-05_17:37:20 on domain   4:     .38993 elapsed seconds
Timing for main: time 2016-02-05_17:37:20 on domain   2:    2.84283 elapsed seconds
Timing for main: time 2016-02-05_17:37:33 on domain   3:     .33563 elapsed seconds
Timing for main: time 2016-02-05_17:37:46 on domain   3:     .32098 elapsed seconds
Timing for main: time 2016-02-05_17:38:00 on domain   3:     .32107 elapsed seconds
Timing for main: time 2016-02-05_17:37:40 on domain   4:     .39399 elapsed seconds
Timing for main: time 2016-02-05_17:38:00 on domain   4:     .39121 elapsed seconds
Timing for main: time 2016-02-05_17:38:00 on domain   2:    2.82949 elapsed seconds
Timing for main: time 2016-02-05_17:38:00 on domain   1:    9.07265 elapsed seconds
Timing for main: time 2016-02-05_17:38:13 on domain   3:     .33602 elapsed seconds
Timing for main: time 2016-02-05_17:38:26 on domain   3:     .32048 elapsed seconds
Timing for main: time 2016-02-05_17:38:40 on domain   3:     .33676 elapsed seconds
Timing for main: time 2016-02-05_17:38:20 on domain   4:     .39423 elapsed seconds
Timing for main: time 2016-02-05_17:38:40 on domain   4:     .39091 elapsed seconds
Timing for main: time 2016-02-05_17:38:40 on domain   2:    2.85640 elapsed seconds
Timing for main: time 2016-02-05_17:38:53 on domain   3:     .34271 elapsed seconds
Timing for main: time 2016-02-05_17:39:06 on domain   3:     .31736 elapsed seconds
Timing for main: time 2016-02-05_17:39:20 on domain   3:     .32173 elapsed seconds
Timing for main: time 2016-02-05_17:39:00 on domain   4:     .40680 elapsed seconds
Timing for main: time 2016-02-05_17:39:20 on domain   4:     .39112 elapsed seconds
Timing for main: time 2016-02-05_17:39:20 on domain   2:    2.84459 elapsed seconds
Timing for main: time 2016-02-05_17:39:33 on domain   3:     .33571 elapsed seconds
Timing for main: time 2016-02-05_17:39:46 on domain   3:     .32190 elapsed seconds
Timing for main: time 2016-02-05_17:40:00 on domain   3:     .32027 elapsed seconds
Timing for main: time 2016-02-05_17:39:40 on domain   4:     .39868 elapsed seconds
Timing for main: time 2016-02-05_17:40:00 on domain   4:     .40911 elapsed seconds
Timing for main: time 2016-02-05_17:40:00 on domain   2:    2.84966 elapsed seconds
Timing for main: time 2016-02-05_17:40:00 on domain   1:    9.10417 elapsed seconds
Timing for main: time 2016-02-05_17:40:13 on domain   3:     .33525 elapsed seconds
Timing for main: time 2016-02-05_17:40:26 on domain   3:     .32069 elapsed seconds
Timing for main: time 2016-02-05_17:40:40 on domain   3:     .32252 elapsed seconds
Timing for main: time 2016-02-05_17:40:20 on domain   4:     .39405 elapsed seconds
Timing for main: time 2016-02-05_17:40:40 on domain   4:     .39073 elapsed seconds
Timing for main: time 2016-02-05_17:40:40 on domain   2:    2.83992 elapsed seconds
Timing for main: time 2016-02-05_17:40:53 on domain   3:     .33523 elapsed seconds
Timing for main: time 2016-02-05_17:41:06 on domain   3:     .32135 elapsed seconds
Timing for main: time 2016-02-05_17:41:20 on domain   3:     .32080 elapsed seconds
Timing for main: time 2016-02-05_17:41:00 on domain   4:     .39270 elapsed seconds
Timing for main: time 2016-02-05_17:41:20 on domain   4:     .39051 elapsed seconds
Timing for main: time 2016-02-05_17:41:20 on domain   2:    2.84641 elapsed seconds
Timing for main: time 2016-02-05_17:41:33 on domain   3:     .33545 elapsed seconds
Timing for main: time 2016-02-05_17:41:46 on domain   3:     .32855 elapsed seconds
Timing for main: time 2016-02-05_17:42:00 on domain   3:     .32006 elapsed seconds
Timing for main: time 2016-02-05_17:41:40 on domain   4:     .39432 elapsed seconds
Timing for main: time 2016-02-05_17:42:00 on domain   4:     .39328 elapsed seconds
Timing for main: time 2016-02-05_17:42:00 on domain   2:    2.83581 elapsed seconds
Timing for main: time 2016-02-05_17:42:00 on domain   1:    9.09127 elapsed seconds
Timing for main: time 2016-02-05_17:42:13 on domain   3:     .33676 elapsed seconds
Timing for main: time 2016-02-05_17:42:26 on domain   3:     .33654 elapsed seconds
Timing for main: time 2016-02-05_17:42:40 on domain   3:     .32038 elapsed seconds
Timing for main: time 2016-02-05_17:42:20 on domain   4:     .39380 elapsed seconds
Timing for main: time 2016-02-05_17:42:40 on domain   4:     .39218 elapsed seconds
Timing for main: time 2016-02-05_17:42:40 on domain   2:    2.85428 elapsed seconds
Timing for main: time 2016-02-05_17:42:53 on domain   3:     .33547 elapsed seconds
Timing for main: time 2016-02-05_17:43:06 on domain   3:     .32054 elapsed seconds
Timing for main: time 2016-02-05_17:43:20 on domain   3:     .32386 elapsed seconds
Timing for main: time 2016-02-05_17:43:00 on domain   4:     .39471 elapsed seconds
Timing for main: time 2016-02-05_17:43:20 on domain   4:     .39145 elapsed seconds
Timing for main: time 2016-02-05_17:43:20 on domain   2:    2.83008 elapsed seconds
Timing for main: time 2016-02-05_17:43:33 on domain   3:     .33580 elapsed seconds
Timing for main: time 2016-02-05_17:43:46 on domain   3:     .32037 elapsed seconds
Timing for main: time 2016-02-05_17:44:00 on domain   3:     .32047 elapsed seconds
Timing for main: time 2016-02-05_17:43:40 on domain   4:     .39758 elapsed seconds
Timing for main: time 2016-02-05_17:44:00 on domain   4:     .39098 elapsed seconds
Timing for main: time 2016-02-05_17:44:00 on domain   2:    2.92040 elapsed seconds
Timing for main: time 2016-02-05_17:44:00 on domain   1:    9.15865 elapsed seconds
Timing for main: time 2016-02-05_17:44:13 on domain   3:     .33815 elapsed seconds
Timing for main: time 2016-02-05_17:44:26 on domain   3:     .32130 elapsed seconds
Timing for main: time 2016-02-05_17:44:40 on domain   3:     .32109 elapsed seconds
Timing for main: time 2016-02-05_17:44:20 on domain   4:     .39416 elapsed seconds
Timing for main: time 2016-02-05_17:44:40 on domain   4:     .39144 elapsed seconds
Timing for main: time 2016-02-05_17:44:40 on domain   2:    2.84426 elapsed seconds
Timing for main: time 2016-02-05_17:44:53 on domain   3:     .33527 elapsed seconds
Timing for main: time 2016-02-05_17:45:06 on domain   3:     .32039 elapsed seconds
Timing for main: time 2016-02-05_17:45:20 on domain   3:     .34006 elapsed seconds
Timing for main: time 2016-02-05_17:45:00 on domain   4:     .41186 elapsed seconds
Timing for main: time 2016-02-05_17:45:20 on domain   4:     .39062 elapsed seconds
Timing for main: time 2016-02-05_17:45:20 on domain   2:    2.86216 elapsed seconds
Timing for main: time 2016-02-05_17:45:33 on domain   3:     .33481 elapsed seconds
Timing for main: time 2016-02-05_17:45:46 on domain   3:     .32016 elapsed seconds
Timing for main: time 2016-02-05_17:46:00 on domain   3:     .38119 elapsed seconds
Timing for main: time 2016-02-05_17:45:40 on domain   4:     .39423 elapsed seconds
Timing for main: time 2016-02-05_17:46:00 on domain   4:     .39072 elapsed seconds
Timing for main: time 2016-02-05_17:46:00 on domain   2:    2.91397 elapsed seconds
Timing for main: time 2016-02-05_17:46:00 on domain   1:    9.17402 elapsed seconds
Timing for main: time 2016-02-05_17:46:13 on domain   3:     .33539 elapsed seconds
Timing for main: time 2016-02-05_17:46:26 on domain   3:     .32086 elapsed seconds
Timing for main: time 2016-02-05_17:46:40 on domain   3:     .32443 elapsed seconds
Timing for main: time 2016-02-05_17:46:20 on domain   4:     .39399 elapsed seconds
Timing for main: time 2016-02-05_17:46:40 on domain   4:     .39101 elapsed seconds
Timing for main: time 2016-02-05_17:46:40 on domain   2:    2.85906 elapsed seconds
Timing for main: time 2016-02-05_17:46:53 on domain   3:     .33534 elapsed seconds
Timing for main: time 2016-02-05_17:47:06 on domain   3:     .32252 elapsed seconds
Timing for main: time 2016-02-05_17:47:20 on domain   3:     .32147 elapsed seconds
Timing for main: time 2016-02-05_17:47:00 on domain   4:     .39424 elapsed seconds
Timing for main: time 2016-02-05_17:47:20 on domain   4:     .39118 elapsed seconds
Timing for main: time 2016-02-05_17:47:20 on domain   2:    2.82922 elapsed seconds
Timing for main: time 2016-02-05_17:47:33 on domain   3:     .35118 elapsed seconds
Timing for main: time 2016-02-05_17:47:46 on domain   3:     .32093 elapsed seconds
Timing for main: time 2016-02-05_17:48:00 on domain   3:     .32260 elapsed seconds
Timing for main: time 2016-02-05_17:47:40 on domain   4:     .39491 elapsed seconds
Timing for main: time 2016-02-05_17:48:00 on domain   4:     .39080 elapsed seconds
Timing for main: time 2016-02-05_17:48:00 on domain   2:    2.84177 elapsed seconds
Timing for main: time 2016-02-05_17:48:00 on domain   1:    9.09927 elapsed seconds
Timing for main: time 2016-02-05_17:48:13 on domain   3:     .33512 elapsed seconds
Timing for main: time 2016-02-05_17:48:26 on domain   3:     .32102 elapsed seconds
Timing for main: time 2016-02-05_17:48:40 on domain   3:     .32135 elapsed seconds
Timing for main: time 2016-02-05_17:48:20 on domain   4:     .39499 elapsed seconds
Timing for main: time 2016-02-05_17:48:40 on domain   4:     .39294 elapsed seconds
Timing for main: time 2016-02-05_17:48:40 on domain   2:    2.84165 elapsed seconds
Timing for main: time 2016-02-05_17:48:53 on domain   3:     .33514 elapsed seconds
Timing for main: time 2016-02-05_17:49:06 on domain   3:     .32085 elapsed seconds
Timing for main: time 2016-02-05_17:49:20 on domain   3:     .32093 elapsed seconds
Timing for main: time 2016-02-05_17:49:00 on domain   4:     .39542 elapsed seconds
Timing for main: time 2016-02-05_17:49:20 on domain   4:     .39086 elapsed seconds
Timing for main: time 2016-02-05_17:49:20 on domain   2:    2.82693 elapsed seconds
Timing for main: time 2016-02-05_17:49:33 on domain   3:     .33518 elapsed seconds
Timing for main: time 2016-02-05_17:49:46 on domain   3:     .32269 elapsed seconds
Timing for main: time 2016-02-05_17:50:00 on domain   3:     .32048 elapsed seconds
Timing for main: time 2016-02-05_17:49:40 on domain   4:     .39437 elapsed seconds
Timing for main: time 2016-02-05_17:50:00 on domain   4:     .40875 elapsed seconds
Timing for main: time 2016-02-05_17:50:00 on domain   2:    2.84637 elapsed seconds
Timing for main: time 2016-02-05_17:50:00 on domain   1:    9.06806 elapsed seconds
Timing for main: time 2016-02-05_17:50:13 on domain   3:     .33575 elapsed seconds
Timing for main: time 2016-02-05_17:50:26 on domain   3:     .32191 elapsed seconds
Timing for main: time 2016-02-05_17:50:40 on domain   3:     .32904 elapsed seconds
Timing for main: time 2016-02-05_17:50:20 on domain   4:     .39472 elapsed seconds
Timing for main: time 2016-02-05_17:50:40 on domain   4:     .49241 elapsed seconds
Timing for main: time 2016-02-05_17:50:40 on domain   2:    2.94897 elapsed seconds
Timing for main: time 2016-02-05_17:50:53 on domain   3:     .33564 elapsed seconds
Timing for main: time 2016-02-05_17:51:06 on domain   3:     .32066 elapsed seconds
Timing for main: time 2016-02-05_17:51:20 on domain   3:     .32084 elapsed seconds
Timing for main: time 2016-02-05_17:51:00 on domain   4:     .39363 elapsed seconds
Timing for main: time 2016-02-05_17:51:20 on domain   4:     .39094 elapsed seconds
Timing for main: time 2016-02-05_17:51:20 on domain   2:    2.83447 elapsed seconds
Timing for main: time 2016-02-05_17:51:33 on domain   3:     .33533 elapsed seconds
Timing for main: time 2016-02-05_17:51:46 on domain   3:     .32458 elapsed seconds
Timing for main: time 2016-02-05_17:52:00 on domain   3:     .32064 elapsed seconds
Timing for main: time 2016-02-05_17:51:40 on domain   4:     .39422 elapsed seconds
Timing for main: time 2016-02-05_17:52:00 on domain   4:     .39141 elapsed seconds
Timing for main: time 2016-02-05_17:52:00 on domain   2:    2.84881 elapsed seconds
Timing for main: time 2016-02-05_17:52:00 on domain   1:    9.18502 elapsed seconds
Timing for main: time 2016-02-05_17:52:13 on domain   3:     .33484 elapsed seconds
Timing for main: time 2016-02-05_17:52:26 on domain   3:     .32173 elapsed seconds
Timing for main: time 2016-02-05_17:52:40 on domain   3:     .33554 elapsed seconds
Timing for main: time 2016-02-05_17:52:20 on domain   4:     .48622 elapsed seconds
Timing for main: time 2016-02-05_17:52:40 on domain   4:     .38903 elapsed seconds
Timing for main: time 2016-02-05_17:52:40 on domain   2:    2.94131 elapsed seconds
Timing for main: time 2016-02-05_17:52:53 on domain   3:     .33501 elapsed seconds
Timing for main: time 2016-02-05_17:53:06 on domain   3:     .32547 elapsed seconds
Timing for main: time 2016-02-05_17:53:20 on domain   3:     .32202 elapsed seconds
Timing for main: time 2016-02-05_17:53:00 on domain   4:     .39451 elapsed seconds
Timing for main: time 2016-02-05_17:53:20 on domain   4:     .39158 elapsed seconds
Timing for main: time 2016-02-05_17:53:20 on domain   2:    2.83290 elapsed seconds
Timing for main: time 2016-02-05_17:53:33 on domain   3:     .33849 elapsed seconds
Timing for main: time 2016-02-05_17:53:46 on domain   3:     .32261 elapsed seconds
Timing for main: time 2016-02-05_17:54:00 on domain   3:     .32093 elapsed seconds
Timing for main: time 2016-02-05_17:53:40 on domain   4:     .39386 elapsed seconds
Timing for main: time 2016-02-05_17:54:00 on domain   4:     .39068 elapsed seconds
Timing for main: time 2016-02-05_17:54:00 on domain   2:    2.82948 elapsed seconds
Timing for main: time 2016-02-05_17:54:00 on domain   1:    9.17323 elapsed seconds
Timing for main: time 2016-02-05_17:54:13 on domain   3:     .33560 elapsed seconds
Timing for main: time 2016-02-05_17:54:26 on domain   3:     .32030 elapsed seconds
Timing for main: time 2016-02-05_17:54:40 on domain   3:     .32113 elapsed seconds
Timing for main: time 2016-02-05_17:54:20 on domain   4:     .39429 elapsed seconds
Timing for main: time 2016-02-05_17:54:40 on domain   4:     .39051 elapsed seconds
Timing for main: time 2016-02-05_17:54:40 on domain   2:    2.83733 elapsed seconds
Timing for main: time 2016-02-05_17:54:53 on domain   3:     .33577 elapsed seconds
Timing for main: time 2016-02-05_17:55:06 on domain   3:     .32154 elapsed seconds
Timing for main: time 2016-02-05_17:55:20 on domain   3:     .32133 elapsed seconds
Timing for main: time 2016-02-05_17:55:00 on domain   4:     .41577 elapsed seconds
Timing for main: time 2016-02-05_17:55:20 on domain   4:     .38848 elapsed seconds
Timing for main: time 2016-02-05_17:55:20 on domain   2:    2.85508 elapsed seconds
Timing for main: time 2016-02-05_17:55:33 on domain   3:     .33587 elapsed seconds
Timing for main: time 2016-02-05_17:55:46 on domain   3:     .32067 elapsed seconds
Timing for main: time 2016-02-05_17:56:00 on domain   3:     .32014 elapsed seconds
Timing for main: time 2016-02-05_17:55:40 on domain   4:     .39514 elapsed seconds
Timing for main: time 2016-02-05_17:56:00 on domain   4:     .39079 elapsed seconds
Timing for main: time 2016-02-05_17:56:00 on domain   2:    2.82750 elapsed seconds
Timing for main: time 2016-02-05_17:56:00 on domain   1:    9.07275 elapsed seconds
Timing for main: time 2016-02-05_17:56:13 on domain   3:     .33766 elapsed seconds
Timing for main: time 2016-02-05_17:56:26 on domain   3:     .32017 elapsed seconds
Timing for main: time 2016-02-05_17:56:40 on domain   3:     .32071 elapsed seconds
Timing for main: time 2016-02-05_17:56:20 on domain   4:     .39443 elapsed seconds
Timing for main: time 2016-02-05_17:56:40 on domain   4:     .39061 elapsed seconds
Timing for main: time 2016-02-05_17:56:40 on domain   2:    2.84234 elapsed seconds
Timing for main: time 2016-02-05_17:56:53 on domain   3:     .33497 elapsed seconds
Timing for main: time 2016-02-05_17:57:06 on domain   3:     .32905 elapsed seconds
Timing for main: time 2016-02-05_17:57:20 on domain   3:     .32059 elapsed seconds
Timing for main: time 2016-02-05_17:57:00 on domain   4:     .39520 elapsed seconds
Timing for main: time 2016-02-05_17:57:20 on domain   4:     .39212 elapsed seconds
Timing for main: time 2016-02-05_17:57:20 on domain   2:    2.85624 elapsed seconds
Timing for main: time 2016-02-05_17:57:33 on domain   3:     .33511 elapsed seconds
Timing for main: time 2016-02-05_17:57:46 on domain   3:     .33592 elapsed seconds
Timing for main: time 2016-02-05_17:58:00 on domain   3:     .32033 elapsed seconds
Timing for main: time 2016-02-05_17:57:40 on domain   4:     .39410 elapsed seconds
Timing for main: time 2016-02-05_17:58:00 on domain   4:     .39067 elapsed seconds
Timing for main: time 2016-02-05_17:58:00 on domain   2:    2.84046 elapsed seconds
Timing for main: time 2016-02-05_17:58:00 on domain   1:    9.09203 elapsed seconds
  photolysis_driver: called for domain  1
Timing for main: time 2016-02-05_17:58:13 on domain   3:     .33577 elapsed seconds
Timing for main: time 2016-02-05_17:58:26 on domain   3:     .32065 elapsed seconds
Timing for main: time 2016-02-05_17:58:40 on domain   3:     .32465 elapsed seconds
Timing for main: time 2016-02-05_17:58:20 on domain   4:     .39425 elapsed seconds
Timing for main: time 2016-02-05_17:58:40 on domain   4:     .39015 elapsed seconds
Timing for main: time 2016-02-05_17:58:40 on domain   2:    2.84131 elapsed seconds
Timing for main: time 2016-02-05_17:58:53 on domain   3:     .33513 elapsed seconds
Timing for main: time 2016-02-05_17:59:06 on domain   3:     .32103 elapsed seconds
Timing for main: time 2016-02-05_17:59:20 on domain   3:     .32054 elapsed seconds
Timing for main: time 2016-02-05_17:59:00 on domain   4:     .39465 elapsed seconds
Timing for main: time 2016-02-05_17:59:20 on domain   4:     .39134 elapsed seconds
Timing for main: time 2016-02-05_17:59:20 on domain   2:    2.82718 elapsed seconds
  photolysis_driver: called for domain  2
Timing for main: time 2016-02-05_17:59:33 on domain   3:     .33529 elapsed seconds
Timing for main: time 2016-02-05_17:59:46 on domain   3:     .32035 elapsed seconds
  photolysis_driver: called for domain  3
Timing for main: time 2016-02-05_18:00:00 on domain   3:    2.07214 elapsed seconds
Timing for Writing wrfout_d03_2016-02-05_18:00:00 for domain        3:    1.56792 elapsed seconds
Timing for main: time 2016-02-05_17:59:40 on domain   4:     .42087 elapsed seconds
  photolysis_driver: called for domain  4
Timing for main: time 2016-02-05_18:00:00 on domain   4:    2.39424 elapsed seconds
Timing for Writing wrfout_d04_2016-02-05_18:00:00 for domain        4:    1.80508 elapsed seconds
Timing for main: time 2016-02-05_18:00:00 on domain   2:   12.15691 elapsed seconds
Timing for Writing wrfout_d02_2016-02-05_18:00:00 for domain        2:    3.62278 elapsed seconds
Timing for main: time 2016-02-05_18:00:00 on domain   1:   23.13293 elapsed seconds
Timing for Writing wrfout_d01_2016-02-05_18:00:00 for domain        1:    3.26554 elapsed seconds
 d01 2016-02-05_18:00:00 wrf: SUCCESS COMPLETE WRF
