taskid: 0 hostname: p10a51.pbm.ihost.com
  Ntasks in X  12 , ntasks in Y  15
 Setting blank km_opt entries to domain #1 values.
  --> The km_opt entry in the namelist.input is now max_domains.
 Setting blank diff_opt entries to domain #1 values.
  --> The diff_opt entry in the namelist.input is now max_domains.
 --- WARNING: traj_opt is zero, but num_traj is not zero; setting num_traj to zero.
 --- NOTE: hypsometric_opt is 2, setting adjust_heights = F
 --- NOTE: sst_update is 0, setting io_form_auxinput4 = 0 and auxinput4_interval = 0 for all domains
 --- NOTE: sst_update is 0, setting io_form_auxinput4 = 0 and auxinput4_interval = 0 for all domains
 --- NOTE: sst_update is 0, setting io_form_auxinput4 = 0 and auxinput4_interval = 0 for all domains
 --- NOTE: sst_update is 0, setting io_form_auxinput4 = 0 and auxinput4_interval = 0 for all domains
 --- NOTE: grid_fdda is 0 for domain      1, setting gfdda interval and ending time to 0 for that domain.
 --- NOTE: both grid_sfdda and pxlsm_soil_nudge are 0 for domain      1, setting sgfdda interval and ending time to 0 for that domain.
 --- NOTE: obs_nudge_opt is 0 for domain      1, setting obs nudging interval and ending time to 0 for that domain.
 --- NOTE: grid_fdda is 0 for domain      2, setting gfdda interval and ending time to 0 for that domain.
 --- NOTE: both grid_sfdda and pxlsm_soil_nudge are 0 for domain      2, setting sgfdda interval and ending time to 0 for that domain.
 --- NOTE: obs_nudge_opt is 0 for domain      2, setting obs nudging interval and ending time to 0 for that domain.
 --- NOTE: grid_fdda is 0 for domain      3, setting gfdda interval and ending time to 0 for that domain.
 --- NOTE: both grid_sfdda and pxlsm_soil_nudge are 0 for domain      3, setting sgfdda interval and ending time to 0 for that domain.
 --- NOTE: obs_nudge_opt is 0 for domain      3, setting obs nudging interval and ending time to 0 for that domain.
 --- NOTE: grid_fdda is 0 for domain      4, setting gfdda interval and ending time to 0 for that domain.
 --- NOTE: both grid_sfdda and pxlsm_soil_nudge are 0 for domain      4, setting sgfdda interval and ending time to 0 for that domain.
 --- NOTE: obs_nudge_opt is 0 for domain      4, setting obs nudging interval and ending time to 0 for that domain.
 bl_pbl_physics /= 4, implies mfshconv must be 0, resetting
 --- NOTE: num_soil_layers has been set to      4
 WRF V3.6 MODEL
  *************************************
  Parent domain
  ids,ide,jds,jde  1 271 1 181
  ims,ime,jms,jme  -4 30 -4 19
  ips,ipe,jps,jpe  1 23 1 12
  *************************************
 DYNAMICS OPTION: Eulerian Mass Coordinate
    alloc_space_field: domain  1 ,  85786064  bytes allocated
   med_initialdata_input: calling input_input
Timing for processing wrfinput file (stream 0) for domain        1:    3.85211 elapsed seconds
 INPUT LandUse = "USGS"
  LANDUSE TYPE = "USGS" FOUND 33  CATEGORIES 2  SEASONS WATER CATEGORY =  16  SNOW CATEGORY =  24
 INITIALIZE THREE Noah LSM RELATED TABLES
  LANDUSE TYPE = USGS FOUND 27  CATEGORIES
  INPUT SOIL TEXTURE CLASSIFICATION = STAS
  SOIL TEXTURE CLASSIFICATION = STAS FOUND 19  CATEGORIES
 *********************************************************************
 *             PROGRAM:WRF/CHEM V3.6 MODEL
 *                                                                   *
 *    PLEASE REPORT ANY BUGS TO WRF/CHEM HELP at                     *
 *                                                                   *
 *              wrfchemhelp.gsd@noaa.gov                             *
 *                                                                   *
 *********************************************************************
 WARNING: dust option 1 currently works only with the GOCART aerosol option.
 WARNING: sea salt option 1 currently works only with the GOCART aerosol option.
  *************************************
  Nesting domain
  ids,ide,jds,jde  1 361 1 253
  ims,ime,jms,jme  -4 42 -4 27
  ips,ipe,jps,jpe  1 30 1 17
  INTERMEDIATE domain
  ids,ide,jds,jde  74 199 47 136
  ims,ime,jms,jme  69 95 42 64
  ips,ipe,jps,jpe  72 85 45 54
  *************************************
 d01 2016-02-05_12:00:00  alloc_space_field: domain  2 ,  149631324  bytes allocated
 d01 2016-02-05_12:00:00 *** Initializing nest domain # 2 from an input file. ***
 d01 2016-02-05_12:00:00 med_initialdata_input: calling input_input
Timing for processing wrfinput file (stream 0) for domain        2:    7.44600 elapsed seconds
 INPUT LandUse = "USGS"
  LANDUSE TYPE = "USGS" FOUND 33  CATEGORIES 2  SEASONS WATER CATEGORY =  16  SNOW CATEGORY =  24
 INITIALIZE THREE Noah LSM RELATED TABLES
  LANDUSE TYPE = USGS FOUND 27  CATEGORIES
  INPUT SOIL TEXTURE CLASSIFICATION = STAS
  SOIL TEXTURE CLASSIFICATION = STAS FOUND 19  CATEGORIES
 *********************************************************************
 *             PROGRAM:WRF/CHEM V3.6 MODEL
 *                                                                   *
 *    PLEASE REPORT ANY BUGS TO WRF/CHEM HELP at                     *
 *                                                                   *
 *              wrfchemhelp.gsd@noaa.gov                             *
 *                                                                   *
 *********************************************************************
 WARNING: dust option 1 currently works only with the GOCART aerosol option.
 WARNING: sea salt option 1 currently works only with the GOCART aerosol option.
 INPUT LandUse = "USGS"
  LANDUSE TYPE = "USGS" FOUND 33  CATEGORIES 2  SEASONS WATER CATEGORY =  16  SNOW CATEGORY =  24
 INITIALIZE THREE Noah LSM RELATED TABLES
  LANDUSE TYPE = USGS FOUND 27  CATEGORIES
  INPUT SOIL TEXTURE CLASSIFICATION = STAS
  SOIL TEXTURE CLASSIFICATION = STAS FOUND 19  CATEGORIES
 *********************************************************************
 *             PROGRAM:WRF/CHEM V3.6 MODEL
 *                                                                   *
 *    PLEASE REPORT ANY BUGS TO WRF/CHEM HELP at                     *
 *                                                                   *
 *              wrfchemhelp.gsd@noaa.gov                             *
 *                                                                   *
 *********************************************************************
 WARNING: dust option 1 currently works only with the GOCART aerosol option.
 WARNING: sea salt option 1 currently works only with the GOCART aerosol option.
 INPUT LandUse = "USGS"
  LANDUSE TYPE = "USGS" FOUND 33  CATEGORIES 2  SEASONS WATER CATEGORY =  16  SNOW CATEGORY =  24
 INITIALIZE THREE Noah LSM RELATED TABLES
  LANDUSE TYPE = USGS FOUND 27  CATEGORIES
  INPUT SOIL TEXTURE CLASSIFICATION = STAS
  SOIL TEXTURE CLASSIFICATION = STAS FOUND 19  CATEGORIES
 *********************************************************************
 *             PROGRAM:WRF/CHEM V3.6 MODEL
 *                                                                   *
 *    PLEASE REPORT ANY BUGS TO WRF/CHEM HELP at                     *
 *                                                                   *
 *              wrfchemhelp.gsd@noaa.gov                             *
 *                                                                   *
 *********************************************************************
 WARNING: dust option 1 currently works only with the GOCART aerosol option.
 WARNING: sea salt option 1 currently works only with the GOCART aerosol option.
Timing for Writing wrfout_d01_2016-02-05_12:00:00 for domain        1:    1.49396 elapsed seconds
  mediation_integrate: med_read_wrf_chem_emissions: Open file wrfchemi_12z_d01
  HOURLY EMISSIONS UPDATE TIME         .0        .0
 mediation_integrate: med_read_wrf_chem_emissions: Read emissions for time 2016-02-05_12:00:00
 **WARNING** Time in input file not being checked **WARNING**
Timing for processing lateral boundary for domain        1:    3.18447 elapsed seconds
  Tile Strategy is not specified. Assuming 1D-Y
 WRF TILE   1 IS      1 IE     23 JS      1 JE     12
 WRF NUMBER OF TILES =   1
  photolysis_driver: called for domain  1
  *************************************
  Nesting domain
  ids,ide,jds,jde  1 307 1 241
  ims,ime,jms,jme  -4 36 -4 27
  ips,ipe,jps,jpe  1 26 1 16
  INTERMEDIATE domain
  ids,ide,jds,jde  124 231 35 120
  ims,ime,jms,jme  119 144 30 51
  ips,ipe,jps,jpe  122 134 33 41
  *************************************
 d02 2016-02-05_12:00:00  alloc_space_field: domain  3 ,  131137840  bytes allocated
 d02 2016-02-05_12:00:00  alloc_space_field: domain  3 ,  7204912  bytes allocated
 d02 2016-02-05_12:00:00 *** Initializing nest domain # 3 from an input file. ***
 d02 2016-02-05_12:00:00 med_initialdata_input: calling input_input
Timing for processing wrfinput file (stream 0) for domain        3:    5.97000 elapsed seconds
 INPUT LandUse = "USGS"
  LANDUSE TYPE = "USGS" FOUND 33  CATEGORIES 2  SEASONS WATER CATEGORY =  16  SNOW CATEGORY =  24
 INITIALIZE THREE Noah LSM RELATED TABLES
  LANDUSE TYPE = USGS FOUND 27  CATEGORIES
  INPUT SOIL TEXTURE CLASSIFICATION = STAS
  SOIL TEXTURE CLASSIFICATION = STAS FOUND 19  CATEGORIES
 *********************************************************************
 *             PROGRAM:WRF/CHEM V3.6 MODEL
 *                                                                   *
 *    PLEASE REPORT ANY BUGS TO WRF/CHEM HELP at                     *
 *                                                                   *
 *              wrfchemhelp.gsd@noaa.gov                             *
 *                                                                   *
 *********************************************************************
 WARNING: dust option 1 currently works only with the GOCART aerosol option.
 WARNING: sea salt option 1 currently works only with the GOCART aerosol option.
 INPUT LandUse = "USGS"
  LANDUSE TYPE = "USGS" FOUND 33  CATEGORIES 2  SEASONS WATER CATEGORY =  16  SNOW CATEGORY =  24
 INITIALIZE THREE Noah LSM RELATED TABLES
  LANDUSE TYPE = USGS FOUND 27  CATEGORIES
  INPUT SOIL TEXTURE CLASSIFICATION = STAS
  SOIL TEXTURE CLASSIFICATION = STAS FOUND 19  CATEGORIES
 *********************************************************************
 *             PROGRAM:WRF/CHEM V3.6 MODEL
 *                                                                   *
 *    PLEASE REPORT ANY BUGS TO WRF/CHEM HELP at                     *
 *                                                                   *
 *              wrfchemhelp.gsd@noaa.gov                             *
 *                                                                   *
 *********************************************************************
 WARNING: dust option 1 currently works only with the GOCART aerosol option.
 WARNING: sea salt option 1 currently works only with the GOCART aerosol option.
 INPUT LandUse = "USGS"
  LANDUSE TYPE = "USGS" FOUND 33  CATEGORIES 2  SEASONS WATER CATEGORY =  16  SNOW CATEGORY =  24
 INITIALIZE THREE Noah LSM RELATED TABLES
  LANDUSE TYPE = USGS FOUND 27  CATEGORIES
  INPUT SOIL TEXTURE CLASSIFICATION = STAS
  SOIL TEXTURE CLASSIFICATION = STAS FOUND 19  CATEGORIES
 *********************************************************************
 *             PROGRAM:WRF/CHEM V3.6 MODEL
 *                                                                   *
 *    PLEASE REPORT ANY BUGS TO WRF/CHEM HELP at                     *
 *                                                                   *
 *              wrfchemhelp.gsd@noaa.gov                             *
 *                                                                   *
 *********************************************************************
 WARNING: dust option 1 currently works only with the GOCART aerosol option.
 WARNING: sea salt option 1 currently works only with the GOCART aerosol option.
  *************************************
  Nesting domain
  ids,ide,jds,jde  1 217 1 388
  ims,ime,jms,jme  -4 30 -4 36
  ips,ipe,jps,jpe  1 18 1 26
  INTERMEDIATE domain
  ids,ide,jds,jde  225 302 83 217
  ims,ime,jms,jme  220 242 78 103
  ips,ipe,jps,jpe  223 232 81 93
  *************************************
 d02 2016-02-05_12:00:00  alloc_space_field: domain  4 ,  142857636  bytes allocated
 d02 2016-02-05_12:00:00 *** Initializing nest domain # 4 from an input file. ***
 d02 2016-02-05_12:00:00 med_initialdata_input: calling input_input
Timing for processing wrfinput file (stream 0) for domain        4:    8.22763 elapsed seconds
 INPUT LandUse = "USGS"
  LANDUSE TYPE = "USGS" FOUND 33  CATEGORIES 2  SEASONS WATER CATEGORY =  16  SNOW CATEGORY =  24
 INITIALIZE THREE Noah LSM RELATED TABLES
  LANDUSE TYPE = USGS FOUND 27  CATEGORIES
  INPUT SOIL TEXTURE CLASSIFICATION = STAS
  SOIL TEXTURE CLASSIFICATION = STAS FOUND 19  CATEGORIES
 *********************************************************************
 *             PROGRAM:WRF/CHEM V3.6 MODEL
 *                                                                   *
 *    PLEASE REPORT ANY BUGS TO WRF/CHEM HELP at                     *
 *                                                                   *
 *              wrfchemhelp.gsd@noaa.gov                             *
 *                                                                   *
 *********************************************************************
 WARNING: dust option 1 currently works only with the GOCART aerosol option.
 WARNING: sea salt option 1 currently works only with the GOCART aerosol option.
 INPUT LandUse = "USGS"
  LANDUSE TYPE = "USGS" FOUND 33  CATEGORIES 2  SEASONS WATER CATEGORY =  16  SNOW CATEGORY =  24
 INITIALIZE THREE Noah LSM RELATED TABLES
  LANDUSE TYPE = USGS FOUND 27  CATEGORIES
  INPUT SOIL TEXTURE CLASSIFICATION = STAS
  SOIL TEXTURE CLASSIFICATION = STAS FOUND 19  CATEGORIES
 *********************************************************************
 *             PROGRAM:WRF/CHEM V3.6 MODEL
 *                                                                   *
 *    PLEASE REPORT ANY BUGS TO WRF/CHEM HELP at                     *
 *                                                                   *
 *              wrfchemhelp.gsd@noaa.gov                             *
 *                                                                   *
 *********************************************************************
 WARNING: dust option 1 currently works only with the GOCART aerosol option.
 WARNING: sea salt option 1 currently works only with the GOCART aerosol option.
 INPUT LandUse = "USGS"
  LANDUSE TYPE = "USGS" FOUND 33  CATEGORIES 2  SEASONS WATER CATEGORY =  16  SNOW CATEGORY =  24
 INITIALIZE THREE Noah LSM RELATED TABLES
  LANDUSE TYPE = USGS FOUND 27  CATEGORIES
  INPUT SOIL TEXTURE CLASSIFICATION = STAS
  SOIL TEXTURE CLASSIFICATION = STAS FOUND 19  CATEGORIES
 *********************************************************************
 *             PROGRAM:WRF/CHEM V3.6 MODEL
 *                                                                   *
 *    PLEASE REPORT ANY BUGS TO WRF/CHEM HELP at                     *
 *                                                                   *
 *              wrfchemhelp.gsd@noaa.gov                             *
 *                                                                   *
 *********************************************************************
 WARNING: dust option 1 currently works only with the GOCART aerosol option.
 WARNING: sea salt option 1 currently works only with the GOCART aerosol option.
Timing for Writing wrfout_d02_2016-02-05_12:00:00 for domain        2:    2.05746 elapsed seconds
  mediation_integrate: med_read_wrf_chem_emissions: Open file wrfchemi_12z_d02
  HOURLY EMISSIONS UPDATE TIME         .0        .0
 mediation_integrate: med_read_wrf_chem_emissions: Read emissions for time 2016-02-05_12:00:00
 **WARNING** Time in input file not being checked **WARNING**
  Tile Strategy is not specified. Assuming 1D-Y
 WRF TILE   1 IS      1 IE     30 JS      1 JE     17
 WRF NUMBER OF TILES =   1
  photolysis_driver: called for domain  2
Timing for Writing wrfout_d03_2016-02-05_12:00:00 for domain        3:    1.82833 elapsed seconds
  mediation_integrate: med_read_wrf_chem_emissions: Open file wrfchemi_12z_d03
  HOURLY EMISSIONS UPDATE TIME         .0        .0
 mediation_integrate: med_read_wrf_chem_emissions: Read emissions for time 2016-02-05_12:00:00
 **WARNING** Time in input file not being checked **WARNING**
  Tile Strategy is not specified. Assuming 1D-Y
 WRF TILE   1 IS      1 IE     26 JS      1 JE     16
 WRF NUMBER OF TILES =   1
  photolysis_driver: called for domain  3
Timing for main: time 2016-02-05_12:00:13 on domain   3:    4.71777 elapsed seconds
Timing for main: time 2016-02-05_12:00:26 on domain   3:     .18729 elapsed seconds
Timing for main: time 2016-02-05_12:00:40 on domain   3:     .16512 elapsed seconds
Timing for Writing wrfout_d04_2016-02-05_12:00:00 for domain        4:    2.11649 elapsed seconds
  mediation_integrate: med_read_wrf_chem_emissions: Open file wrfchemi_12z_d04
  HOURLY EMISSIONS UPDATE TIME         .0        .0
 mediation_integrate: med_read_wrf_chem_emissions: Read emissions for time 2016-02-05_12:00:00
 **WARNING** Time in input file not being checked **WARNING**
  Tile Strategy is not specified. Assuming 1D-Y
 WRF TILE   1 IS      1 IE     18 JS      1 JE     26
 WRF NUMBER OF TILES =   1
  photolysis_driver: called for domain  4
Timing for main: time 2016-02-05_12:00:20 on domain   4:    7.58618 elapsed seconds
Timing for main: time 2016-02-05_12:00:40 on domain   4:     .24628 elapsed seconds
Timing for main: time 2016-02-05_12:00:40 on domain   2:   36.78467 elapsed seconds
Timing for main: time 2016-02-05_12:00:53 on domain   3:     .17747 elapsed seconds
Timing for main: time 2016-02-05_12:01:06 on domain   3:     .16856 elapsed seconds
Timing for main: time 2016-02-05_12:01:20 on domain   3:     .16616 elapsed seconds
Timing for main: time 2016-02-05_12:01:00 on domain   4:     .20988 elapsed seconds
Timing for main: time 2016-02-05_12:01:20 on domain   4:     .20105 elapsed seconds
Timing for main: time 2016-02-05_12:01:20 on domain   2:    1.59173 elapsed seconds
Timing for main: time 2016-02-05_12:01:33 on domain   3:     .17826 elapsed seconds
Timing for main: time 2016-02-05_12:01:46 on domain   3:     .16697 elapsed seconds
Timing for main: time 2016-02-05_12:02:00 on domain   3:     .17461 elapsed seconds
Timing for main: time 2016-02-05_12:01:40 on domain   4:     .20751 elapsed seconds
Timing for main: time 2016-02-05_12:02:00 on domain   4:     .20406 elapsed seconds
Timing for main: time 2016-02-05_12:02:00 on domain   2:    1.64237 elapsed seconds
Timing for main: time 2016-02-05_12:02:00 on domain   1:   57.39022 elapsed seconds
Timing for main: time 2016-02-05_12:02:13 on domain   3:     .18033 elapsed seconds
Timing for main: time 2016-02-05_12:02:26 on domain   3:     .17199 elapsed seconds
Timing for main: time 2016-02-05_12:02:40 on domain   3:     .16609 elapsed seconds
Timing for main: time 2016-02-05_12:02:20 on domain   4:     .20458 elapsed seconds
Timing for main: time 2016-02-05_12:02:40 on domain   4:     .20707 elapsed seconds
Timing for main: time 2016-02-05_12:02:40 on domain   2:    1.65139 elapsed seconds
Timing for main: time 2016-02-05_12:02:53 on domain   3:     .17752 elapsed seconds
Timing for main: time 2016-02-05_12:03:06 on domain   3:     .16843 elapsed seconds
Timing for main: time 2016-02-05_12:03:20 on domain   3:     .16472 elapsed seconds
Timing for main: time 2016-02-05_12:03:00 on domain   4:     .20077 elapsed seconds
Timing for main: time 2016-02-05_12:03:20 on domain   4:     .19716 elapsed seconds
Timing for main: time 2016-02-05_12:03:20 on domain   2:    1.61934 elapsed seconds
Timing for main: time 2016-02-05_12:03:33 on domain   3:     .17082 elapsed seconds
Timing for main: time 2016-02-05_12:03:46 on domain   3:     .16229 elapsed seconds
Timing for main: time 2016-02-05_12:04:00 on domain   3:     .16199 elapsed seconds
Timing for main: time 2016-02-05_12:03:40 on domain   4:     .20022 elapsed seconds
Timing for main: time 2016-02-05_12:04:00 on domain   4:     .19730 elapsed seconds
Timing for main: time 2016-02-05_12:04:00 on domain   2:    1.59534 elapsed seconds
Timing for main: time 2016-02-05_12:04:00 on domain   1:    5.18103 elapsed seconds
Timing for main: time 2016-02-05_12:04:13 on domain   3:     .17134 elapsed seconds
Timing for main: time 2016-02-05_12:04:26 on domain   3:     .16205 elapsed seconds
Timing for main: time 2016-02-05_12:04:40 on domain   3:     .16225 elapsed seconds
Timing for main: time 2016-02-05_12:04:20 on domain   4:     .20094 elapsed seconds
Timing for main: time 2016-02-05_12:04:40 on domain   4:     .19705 elapsed seconds
Timing for main: time 2016-02-05_12:04:40 on domain   2:    1.61082 elapsed seconds
Timing for main: time 2016-02-05_12:04:53 on domain   3:     .17130 elapsed seconds
Timing for main: time 2016-02-05_12:05:06 on domain   3:     .16917 elapsed seconds
Timing for main: time 2016-02-05_12:05:20 on domain   3:     .16194 elapsed seconds
Timing for main: time 2016-02-05_12:05:00 on domain   4:     .21331 elapsed seconds
Timing for main: time 2016-02-05_12:05:20 on domain   4:     .19616 elapsed seconds
Timing for main: time 2016-02-05_12:05:20 on domain   2:    1.62936 elapsed seconds
Timing for main: time 2016-02-05_12:05:33 on domain   3:     .17063 elapsed seconds
Timing for main: time 2016-02-05_12:05:46 on domain   3:     .16119 elapsed seconds
Timing for main: time 2016-02-05_12:06:00 on domain   3:     .16270 elapsed seconds
Timing for main: time 2016-02-05_12:05:40 on domain   4:     .20043 elapsed seconds
Timing for main: time 2016-02-05_12:06:00 on domain   4:     .19756 elapsed seconds
Timing for main: time 2016-02-05_12:06:00 on domain   2:    1.59687 elapsed seconds
Timing for main: time 2016-02-05_12:06:00 on domain   1:    5.17432 elapsed seconds
Timing for main: time 2016-02-05_12:06:13 on domain   3:     .17101 elapsed seconds
Timing for main: time 2016-02-05_12:06:26 on domain   3:     .16164 elapsed seconds
Timing for main: time 2016-02-05_12:06:40 on domain   3:     .16568 elapsed seconds
Timing for main: time 2016-02-05_12:06:20 on domain   4:     .20441 elapsed seconds
Timing for main: time 2016-02-05_12:06:40 on domain   4:     .19802 elapsed seconds
Timing for main: time 2016-02-05_12:06:40 on domain   2:    1.61696 elapsed seconds
Timing for main: time 2016-02-05_12:06:53 on domain   3:     .17301 elapsed seconds
Timing for main: time 2016-02-05_12:07:06 on domain   3:     .16206 elapsed seconds
Timing for main: time 2016-02-05_12:07:20 on domain   3:     .16198 elapsed seconds
Timing for main: time 2016-02-05_12:07:00 on domain   4:     .20138 elapsed seconds
Timing for main: time 2016-02-05_12:07:20 on domain   4:     .19677 elapsed seconds
Timing for main: time 2016-02-05_12:07:20 on domain   2:    1.59716 elapsed seconds
Timing for main: time 2016-02-05_12:07:33 on domain   3:     .17019 elapsed seconds
Timing for main: time 2016-02-05_12:07:46 on domain   3:     .16204 elapsed seconds
Timing for main: time 2016-02-05_12:08:00 on domain   3:     .16228 elapsed seconds
Timing for main: time 2016-02-05_12:07:40 on domain   4:     .20116 elapsed seconds
Timing for main: time 2016-02-05_12:08:00 on domain   4:     .19707 elapsed seconds
Timing for main: time 2016-02-05_12:08:00 on domain   2:    1.59603 elapsed seconds
Timing for main: time 2016-02-05_12:08:00 on domain   1:    5.13852 elapsed seconds
Timing for main: time 2016-02-05_12:08:13 on domain   3:     .17209 elapsed seconds
Timing for main: time 2016-02-05_12:08:26 on domain   3:     .16164 elapsed seconds
Timing for main: time 2016-02-05_12:08:40 on domain   3:     .16231 elapsed seconds
Timing for main: time 2016-02-05_12:08:20 on domain   4:     .20069 elapsed seconds
Timing for main: time 2016-02-05_12:08:40 on domain   4:     .19753 elapsed seconds
Timing for main: time 2016-02-05_12:08:40 on domain   2:    1.61003 elapsed seconds
Timing for main: time 2016-02-05_12:08:53 on domain   3:     .17100 elapsed seconds
Timing for main: time 2016-02-05_12:09:06 on domain   3:     .16252 elapsed seconds
Timing for main: time 2016-02-05_12:09:20 on domain   3:     .16222 elapsed seconds
Timing for main: time 2016-02-05_12:09:00 on domain   4:     .20205 elapsed seconds
Timing for main: time 2016-02-05_12:09:20 on domain   4:     .19627 elapsed seconds
Timing for main: time 2016-02-05_12:09:20 on domain   2:    1.60652 elapsed seconds
Timing for main: time 2016-02-05_12:09:33 on domain   3:     .17272 elapsed seconds
Timing for main: time 2016-02-05_12:09:46 on domain   3:     .16207 elapsed seconds
Timing for main: time 2016-02-05_12:10:00 on domain   3:     .16259 elapsed seconds
Timing for main: time 2016-02-05_12:09:40 on domain   4:     .20101 elapsed seconds
Timing for main: time 2016-02-05_12:10:00 on domain   4:     .20670 elapsed seconds
Timing for main: time 2016-02-05_12:10:00 on domain   2:    1.60775 elapsed seconds
Timing for main: time 2016-02-05_12:10:00 on domain   1:    5.15392 elapsed seconds
Timing for main: time 2016-02-05_12:10:13 on domain   3:     .17815 elapsed seconds
Timing for main: time 2016-02-05_12:10:26 on domain   3:     .16218 elapsed seconds
Timing for main: time 2016-02-05_12:10:40 on domain   3:     .16231 elapsed seconds
Timing for main: time 2016-02-05_12:10:20 on domain   4:     .20103 elapsed seconds
Timing for main: time 2016-02-05_12:10:40 on domain   4:     .19832 elapsed seconds
Timing for main: time 2016-02-05_12:10:40 on domain   2:    1.62733 elapsed seconds
Timing for main: time 2016-02-05_12:10:53 on domain   3:     .17092 elapsed seconds
Timing for main: time 2016-02-05_12:11:06 on domain   3:     .16309 elapsed seconds
Timing for main: time 2016-02-05_12:11:20 on domain   3:     .16720 elapsed seconds
Timing for main: time 2016-02-05_12:11:00 on domain   4:     .20146 elapsed seconds
Timing for main: time 2016-02-05_12:11:20 on domain   4:     .19753 elapsed seconds
Timing for main: time 2016-02-05_12:11:20 on domain   2:    1.60262 elapsed seconds
Timing for main: time 2016-02-05_12:11:33 on domain   3:     .17240 elapsed seconds
Timing for main: time 2016-02-05_12:11:46 on domain   3:     .16180 elapsed seconds
Timing for main: time 2016-02-05_12:12:00 on domain   3:     .16241 elapsed seconds
Timing for main: time 2016-02-05_12:11:40 on domain   4:     .20402 elapsed seconds
Timing for main: time 2016-02-05_12:12:00 on domain   4:     .19735 elapsed seconds
Timing for main: time 2016-02-05_12:12:00 on domain   2:    1.60034 elapsed seconds
Timing for main: time 2016-02-05_12:12:00 on domain   1:    5.16711 elapsed seconds
Timing for main: time 2016-02-05_12:12:13 on domain   3:     .16934 elapsed seconds
Timing for main: time 2016-02-05_12:12:26 on domain   3:     .16211 elapsed seconds
Timing for main: time 2016-02-05_12:12:40 on domain   3:     .16294 elapsed seconds
Timing for main: time 2016-02-05_12:12:20 on domain   4:     .20114 elapsed seconds
Timing for main: time 2016-02-05_12:12:40 on domain   4:     .19748 elapsed seconds
Timing for main: time 2016-02-05_12:12:40 on domain   2:    1.61256 elapsed seconds
Timing for main: time 2016-02-05_12:12:53 on domain   3:     .17113 elapsed seconds
Timing for main: time 2016-02-05_12:13:06 on domain   3:     .16295 elapsed seconds
Timing for main: time 2016-02-05_12:13:20 on domain   3:     .16647 elapsed seconds
Timing for main: time 2016-02-05_12:13:00 on domain   4:     .20198 elapsed seconds
Timing for main: time 2016-02-05_12:13:20 on domain   4:     .20022 elapsed seconds
Timing for main: time 2016-02-05_12:13:20 on domain   2:    1.60513 elapsed seconds
Timing for main: time 2016-02-05_12:13:33 on domain   3:     .17087 elapsed seconds
Timing for main: time 2016-02-05_12:13:46 on domain   3:     .16279 elapsed seconds
Timing for main: time 2016-02-05_12:14:00 on domain   3:     .16243 elapsed seconds
Timing for main: time 2016-02-05_12:13:40 on domain   4:     .20242 elapsed seconds
Timing for main: time 2016-02-05_12:14:00 on domain   4:     .20649 elapsed seconds
Timing for main: time 2016-02-05_12:14:00 on domain   2:    1.60826 elapsed seconds
Timing for main: time 2016-02-05_12:14:00 on domain   1:    5.16056 elapsed seconds
Timing for main: time 2016-02-05_12:14:13 on domain   3:     .17381 elapsed seconds
Timing for main: time 2016-02-05_12:14:26 on domain   3:     .16152 elapsed seconds
Timing for main: time 2016-02-05_12:14:40 on domain   3:     .16241 elapsed seconds
Timing for main: time 2016-02-05_12:14:20 on domain   4:     .20232 elapsed seconds
Timing for main: time 2016-02-05_12:14:40 on domain   4:     .20274 elapsed seconds
Timing for main: time 2016-02-05_12:14:40 on domain   2:    1.62008 elapsed seconds
Timing for main: time 2016-02-05_12:14:53 on domain   3:     .17114 elapsed seconds
Timing for main: time 2016-02-05_12:15:06 on domain   3:     .16208 elapsed seconds
Timing for main: time 2016-02-05_12:15:20 on domain   3:     .16996 elapsed seconds
Timing for main: time 2016-02-05_12:15:00 on domain   4:     .21028 elapsed seconds
Timing for main: time 2016-02-05_12:15:20 on domain   4:     .19751 elapsed seconds
Timing for main: time 2016-02-05_12:15:20 on domain   2:    1.61399 elapsed seconds
Timing for main: time 2016-02-05_12:15:33 on domain   3:     .17128 elapsed seconds
Timing for main: time 2016-02-05_12:15:46 on domain   3:     .16192 elapsed seconds
Timing for main: time 2016-02-05_12:16:00 on domain   3:     .16193 elapsed seconds
Timing for main: time 2016-02-05_12:15:40 on domain   4:     .20321 elapsed seconds
Timing for main: time 2016-02-05_12:16:00 on domain   4:     .19796 elapsed seconds
Timing for main: time 2016-02-05_12:16:00 on domain   2:    1.60739 elapsed seconds
Timing for main: time 2016-02-05_12:16:00 on domain   1:    5.17002 elapsed seconds
Timing for main: time 2016-02-05_12:16:13 on domain   3:     .17079 elapsed seconds
Timing for main: time 2016-02-05_12:16:26 on domain   3:     .16539 elapsed seconds
Timing for main: time 2016-02-05_12:16:40 on domain   3:     .16270 elapsed seconds
Timing for main: time 2016-02-05_12:16:20 on domain   4:     .20193 elapsed seconds
Timing for main: time 2016-02-05_12:16:40 on domain   4:     .19775 elapsed seconds
Timing for main: time 2016-02-05_12:16:40 on domain   2:    1.61722 elapsed seconds
Timing for main: time 2016-02-05_12:16:53 on domain   3:     .17109 elapsed seconds
Timing for main: time 2016-02-05_12:17:06 on domain   3:     .16195 elapsed seconds
Timing for main: time 2016-02-05_12:17:20 on domain   3:     .16231 elapsed seconds
Timing for main: time 2016-02-05_12:17:00 on domain   4:     .20177 elapsed seconds
Timing for main: time 2016-02-05_12:17:20 on domain   4:     .19768 elapsed seconds
Timing for main: time 2016-02-05_12:17:20 on domain   2:    1.59793 elapsed seconds
Timing for main: time 2016-02-05_12:17:33 on domain   3:     .17101 elapsed seconds
Timing for main: time 2016-02-05_12:17:46 on domain   3:     .16204 elapsed seconds
Timing for main: time 2016-02-05_12:18:00 on domain   3:     .16272 elapsed seconds
Timing for main: time 2016-02-05_12:17:40 on domain   4:     .20213 elapsed seconds
Timing for main: time 2016-02-05_12:18:00 on domain   4:     .19696 elapsed seconds
Timing for main: time 2016-02-05_12:18:00 on domain   2:    1.59639 elapsed seconds
Timing for main: time 2016-02-05_12:18:00 on domain   1:    5.14818 elapsed seconds
Timing for main: time 2016-02-05_12:18:13 on domain   3:     .17109 elapsed seconds
Timing for main: time 2016-02-05_12:18:26 on domain   3:     .16245 elapsed seconds
Timing for main: time 2016-02-05_12:18:40 on domain   3:     .16634 elapsed seconds
Timing for main: time 2016-02-05_12:18:20 on domain   4:     .20214 elapsed seconds
Timing for main: time 2016-02-05_12:18:40 on domain   4:     .19737 elapsed seconds
Timing for main: time 2016-02-05_12:18:40 on domain   2:    1.61665 elapsed seconds
Timing for main: time 2016-02-05_12:18:53 on domain   3:     .20528 elapsed seconds
Timing for main: time 2016-02-05_12:19:06 on domain   3:     .20033 elapsed seconds
Timing for main: time 2016-02-05_12:19:20 on domain   3:     .16265 elapsed seconds
Timing for main: time 2016-02-05_12:19:00 on domain   4:     .20296 elapsed seconds
Timing for main: time 2016-02-05_12:19:20 on domain   4:     .19739 elapsed seconds
Timing for main: time 2016-02-05_12:19:20 on domain   2:    1.67337 elapsed seconds
Timing for main: time 2016-02-05_12:19:33 on domain   3:     .17117 elapsed seconds
Timing for main: time 2016-02-05_12:19:46 on domain   3:     .16248 elapsed seconds
Timing for main: time 2016-02-05_12:20:00 on domain   3:     .16675 elapsed seconds
Timing for main: time 2016-02-05_12:19:40 on domain   4:     .20202 elapsed seconds
Timing for main: time 2016-02-05_12:20:00 on domain   4:     .20741 elapsed seconds
Timing for main: time 2016-02-05_12:20:00 on domain   2:    1.61228 elapsed seconds
Timing for main: time 2016-02-05_12:20:00 on domain   1:    5.23108 elapsed seconds
Timing for main: time 2016-02-05_12:20:13 on domain   3:     .17078 elapsed seconds
Timing for main: time 2016-02-05_12:20:26 on domain   3:     .16929 elapsed seconds
Timing for main: time 2016-02-05_12:20:40 on domain   3:     .16267 elapsed seconds
Timing for main: time 2016-02-05_12:20:20 on domain   4:     .20212 elapsed seconds
Timing for main: time 2016-02-05_12:20:40 on domain   4:     .20300 elapsed seconds
Timing for main: time 2016-02-05_12:20:40 on domain   2:    1.62546 elapsed seconds
Timing for main: time 2016-02-05_12:20:53 on domain   3:     .17142 elapsed seconds
Timing for main: time 2016-02-05_12:21:06 on domain   3:     .16250 elapsed seconds
Timing for main: time 2016-02-05_12:21:20 on domain   3:     .16231 elapsed seconds
Timing for main: time 2016-02-05_12:21:00 on domain   4:     .20190 elapsed seconds
Timing for main: time 2016-02-05_12:21:20 on domain   4:     .19727 elapsed seconds
Timing for main: time 2016-02-05_12:21:20 on domain   2:    1.60955 elapsed seconds
Timing for main: time 2016-02-05_12:21:33 on domain   3:     .17066 elapsed seconds
Timing for main: time 2016-02-05_12:21:46 on domain   3:     .16200 elapsed seconds
Timing for main: time 2016-02-05_12:22:00 on domain   3:     .16214 elapsed seconds
Timing for main: time 2016-02-05_12:21:40 on domain   4:     .20249 elapsed seconds
Timing for main: time 2016-02-05_12:22:00 on domain   4:     .19795 elapsed seconds
Timing for main: time 2016-02-05_12:22:00 on domain   2:    1.59736 elapsed seconds
Timing for main: time 2016-02-05_12:22:00 on domain   1:    5.15870 elapsed seconds
Timing for main: time 2016-02-05_12:22:13 on domain   3:     .17143 elapsed seconds
Timing for main: time 2016-02-05_12:22:26 on domain   3:     .16208 elapsed seconds
Timing for main: time 2016-02-05_12:22:40 on domain   3:     .16265 elapsed seconds
Timing for main: time 2016-02-05_12:22:20 on domain   4:     .20225 elapsed seconds
Timing for main: time 2016-02-05_12:22:40 on domain   4:     .19972 elapsed seconds
Timing for main: time 2016-02-05_12:22:40 on domain   2:    1.61485 elapsed seconds
Timing for main: time 2016-02-05_12:22:53 on domain   3:     .17108 elapsed seconds
Timing for main: time 2016-02-05_12:23:06 on domain   3:     .16234 elapsed seconds
Timing for main: time 2016-02-05_12:23:20 on domain   3:     .16235 elapsed seconds
Timing for main: time 2016-02-05_12:23:00 on domain   4:     .20193 elapsed seconds
Timing for main: time 2016-02-05_12:23:20 on domain   4:     .19735 elapsed seconds
Timing for main: time 2016-02-05_12:23:20 on domain   2:    1.59776 elapsed seconds
Timing for main: time 2016-02-05_12:23:33 on domain   3:     .17102 elapsed seconds
Timing for main: time 2016-02-05_12:23:46 on domain   3:     .16200 elapsed seconds
Timing for main: time 2016-02-05_12:24:00 on domain   3:     .16249 elapsed seconds
Timing for main: time 2016-02-05_12:23:40 on domain   4:     .20489 elapsed seconds
Timing for main: time 2016-02-05_12:24:00 on domain   4:     .19740 elapsed seconds
Timing for main: time 2016-02-05_12:24:00 on domain   2:    1.60400 elapsed seconds
Timing for main: time 2016-02-05_12:24:00 on domain   1:    5.15222 elapsed seconds
Timing for main: time 2016-02-05_12:24:13 on domain   3:     .17082 elapsed seconds
Timing for main: time 2016-02-05_12:24:26 on domain   3:     .16199 elapsed seconds
Timing for main: time 2016-02-05_12:24:40 on domain   3:     .16238 elapsed seconds
Timing for main: time 2016-02-05_12:24:20 on domain   4:     .20396 elapsed seconds
Timing for main: time 2016-02-05_12:24:40 on domain   4:     .19909 elapsed seconds
Timing for main: time 2016-02-05_12:24:40 on domain   2:    1.61584 elapsed seconds
Timing for main: time 2016-02-05_12:24:53 on domain   3:     .17261 elapsed seconds
Timing for main: time 2016-02-05_12:25:06 on domain   3:     .16222 elapsed seconds
Timing for main: time 2016-02-05_12:25:20 on domain   3:     .16271 elapsed seconds
Timing for main: time 2016-02-05_12:25:00 on domain   4:     .21029 elapsed seconds
Timing for main: time 2016-02-05_12:25:20 on domain   4:     .19729 elapsed seconds
Timing for main: time 2016-02-05_12:25:20 on domain   2:    1.60691 elapsed seconds
Timing for main: time 2016-02-05_12:25:33 on domain   3:     .18308 elapsed seconds
Timing for main: time 2016-02-05_12:25:46 on domain   3:     .16263 elapsed seconds
Timing for main: time 2016-02-05_12:26:00 on domain   3:     .16247 elapsed seconds
Timing for main: time 2016-02-05_12:25:40 on domain   4:     .20231 elapsed seconds
Timing for main: time 2016-02-05_12:26:00 on domain   4:     .19939 elapsed seconds
Timing for main: time 2016-02-05_12:26:00 on domain   2:    1.61148 elapsed seconds
Timing for main: time 2016-02-05_12:26:00 on domain   1:    5.16342 elapsed seconds
Timing for main: time 2016-02-05_12:26:13 on domain   3:     .17248 elapsed seconds
Timing for main: time 2016-02-05_12:26:26 on domain   3:     .16201 elapsed seconds
Timing for main: time 2016-02-05_12:26:40 on domain   3:     .16239 elapsed seconds
Timing for main: time 2016-02-05_12:26:20 on domain   4:     .20228 elapsed seconds
Timing for main: time 2016-02-05_12:26:40 on domain   4:     .19745 elapsed seconds
Timing for main: time 2016-02-05_12:26:40 on domain   2:    1.62299 elapsed seconds
Timing for main: time 2016-02-05_12:26:53 on domain   3:     .17112 elapsed seconds
Timing for main: time 2016-02-05_12:27:06 on domain   3:     .16226 elapsed seconds
Timing for main: time 2016-02-05_12:27:20 on domain   3:     .16194 elapsed seconds
Timing for main: time 2016-02-05_12:27:00 on domain   4:     .20226 elapsed seconds
Timing for main: time 2016-02-05_12:27:20 on domain   4:     .19928 elapsed seconds
Timing for main: time 2016-02-05_12:27:20 on domain   2:    1.59991 elapsed seconds
Timing for main: time 2016-02-05_12:27:33 on domain   3:     .17133 elapsed seconds
Timing for main: time 2016-02-05_12:27:46 on domain   3:     .16206 elapsed seconds
Timing for main: time 2016-02-05_12:28:00 on domain   3:     .16237 elapsed seconds
Timing for main: time 2016-02-05_12:27:40 on domain   4:     .20173 elapsed seconds
Timing for main: time 2016-02-05_12:28:00 on domain   4:     .19782 elapsed seconds
Timing for main: time 2016-02-05_12:28:00 on domain   2:    1.59880 elapsed seconds
Timing for main: time 2016-02-05_12:28:00 on domain   1:    5.14937 elapsed seconds
  photolysis_driver: called for domain  1
Timing for main: time 2016-02-05_12:28:13 on domain   3:     .17150 elapsed seconds
Timing for main: time 2016-02-05_12:28:26 on domain   3:     .16239 elapsed seconds
Timing for main: time 2016-02-05_12:28:40 on domain   3:     .16240 elapsed seconds
Timing for main: time 2016-02-05_12:28:20 on domain   4:     .20244 elapsed seconds
Timing for main: time 2016-02-05_12:28:40 on domain   4:     .19875 elapsed seconds
Timing for main: time 2016-02-05_12:28:40 on domain   2:    1.61572 elapsed seconds
Timing for main: time 2016-02-05_12:28:53 on domain   3:     .17083 elapsed seconds
Timing for main: time 2016-02-05_12:29:06 on domain   3:     .16221 elapsed seconds
Timing for main: time 2016-02-05_12:29:20 on domain   3:     .16306 elapsed seconds
Timing for main: time 2016-02-05_12:29:00 on domain   4:     .20160 elapsed seconds
Timing for main: time 2016-02-05_12:29:20 on domain   4:     .19818 elapsed seconds
Timing for main: time 2016-02-05_12:29:20 on domain   2:    1.59865 elapsed seconds
  photolysis_driver: called for domain  2
Timing for main: time 2016-02-05_12:29:33 on domain   3:     .17121 elapsed seconds
Timing for main: time 2016-02-05_12:29:46 on domain   3:     .16459 elapsed seconds
  photolysis_driver: called for domain  3
Timing for main: time 2016-02-05_12:30:00 on domain   3:     .94087 elapsed seconds
Timing for main: time 2016-02-05_12:29:40 on domain   4:     .20471 elapsed seconds
  photolysis_driver: called for domain  4
Timing for main: time 2016-02-05_12:30:00 on domain   4:    1.07144 elapsed seconds
Timing for main: time 2016-02-05_12:30:00 on domain   2:    4.25458 elapsed seconds
Timing for main: time 2016-02-05_12:30:00 on domain   1:    8.38795 elapsed seconds
Timing for main: time 2016-02-05_12:30:13 on domain   3:     .32293 elapsed seconds
Timing for main: time 2016-02-05_12:30:26 on domain   3:     .16116 elapsed seconds
Timing for main: time 2016-02-05_12:30:40 on domain   3:     .16875 elapsed seconds
Timing for main: time 2016-02-05_12:30:20 on domain   4:     .37535 elapsed seconds
Timing for main: time 2016-02-05_12:30:40 on domain   4:     .19739 elapsed seconds
Timing for main: time 2016-02-05_12:30:40 on domain   2:    2.13118 elapsed seconds
Timing for main: time 2016-02-05_12:30:53 on domain   3:     .16980 elapsed seconds
Timing for main: time 2016-02-05_12:31:06 on domain   3:     .16142 elapsed seconds
Timing for main: time 2016-02-05_12:31:20 on domain   3:     .16138 elapsed seconds
Timing for main: time 2016-02-05_12:31:00 on domain   4:     .23408 elapsed seconds
Timing for main: time 2016-02-05_12:31:20 on domain   4:     .19611 elapsed seconds
Timing for main: time 2016-02-05_12:31:20 on domain   2:    1.62527 elapsed seconds
Timing for main: time 2016-02-05_12:31:33 on domain   3:     .17052 elapsed seconds
Timing for main: time 2016-02-05_12:31:46 on domain   3:     .16112 elapsed seconds
Timing for main: time 2016-02-05_12:32:00 on domain   3:     .16283 elapsed seconds
Timing for main: time 2016-02-05_12:31:40 on domain   4:     .21093 elapsed seconds
Timing for main: time 2016-02-05_12:32:00 on domain   4:     .26828 elapsed seconds
Timing for main: time 2016-02-05_12:32:00 on domain   2:    1.68419 elapsed seconds
Timing for main: time 2016-02-05_12:32:00 on domain   1:    5.90768 elapsed seconds
Timing for main: time 2016-02-05_12:32:13 on domain   3:     .17002 elapsed seconds
Timing for main: time 2016-02-05_12:32:26 on domain   3:     .16163 elapsed seconds
Timing for main: time 2016-02-05_12:32:40 on domain   3:     .16121 elapsed seconds
Timing for main: time 2016-02-05_12:32:20 on domain   4:     .20108 elapsed seconds
Timing for main: time 2016-02-05_12:32:40 on domain   4:     .19621 elapsed seconds
Timing for main: time 2016-02-05_12:32:40 on domain   2:    1.60591 elapsed seconds
Timing for main: time 2016-02-05_12:32:53 on domain   3:     .17048 elapsed seconds
Timing for main: time 2016-02-05_12:33:06 on domain   3:     .16116 elapsed seconds
Timing for main: time 2016-02-05_12:33:20 on domain   3:     .16125 elapsed seconds
Timing for main: time 2016-02-05_12:33:00 on domain   4:     .23213 elapsed seconds
Timing for main: time 2016-02-05_12:33:20 on domain   4:     .19786 elapsed seconds
Timing for main: time 2016-02-05_12:33:20 on domain   2:    1.62853 elapsed seconds
Timing for main: time 2016-02-05_12:33:33 on domain   3:     .17143 elapsed seconds
Timing for main: time 2016-02-05_12:33:46 on domain   3:     .16114 elapsed seconds
Timing for main: time 2016-02-05_12:34:00 on domain   3:     .16178 elapsed seconds
Timing for main: time 2016-02-05_12:33:40 on domain   4:     .20003 elapsed seconds
Timing for main: time 2016-02-05_12:34:00 on domain   4:     .19695 elapsed seconds
Timing for main: time 2016-02-05_12:34:00 on domain   2:    1.59354 elapsed seconds
Timing for main: time 2016-02-05_12:34:00 on domain   1:    5.16096 elapsed seconds
Timing for main: time 2016-02-05_12:34:13 on domain   3:     .17114 elapsed seconds
Timing for main: time 2016-02-05_12:34:26 on domain   3:     .16136 elapsed seconds
Timing for main: time 2016-02-05_12:34:40 on domain   3:     .16164 elapsed seconds
Timing for main: time 2016-02-05_12:34:20 on domain   4:     .20056 elapsed seconds
Timing for main: time 2016-02-05_12:34:40 on domain   4:     .20016 elapsed seconds
Timing for main: time 2016-02-05_12:34:40 on domain   2:    1.61126 elapsed seconds
Timing for main: time 2016-02-05_12:34:53 on domain   3:     .17131 elapsed seconds
Timing for main: time 2016-02-05_12:35:06 on domain   3:     .16127 elapsed seconds
Timing for main: time 2016-02-05_12:35:20 on domain   3:     .16319 elapsed seconds
Timing for main: time 2016-02-05_12:35:00 on domain   4:     .20918 elapsed seconds
Timing for main: time 2016-02-05_12:35:20 on domain   4:     .19593 elapsed seconds
Timing for main: time 2016-02-05_12:35:20 on domain   2:    1.60368 elapsed seconds
Timing for main: time 2016-02-05_12:35:33 on domain   3:     .17934 elapsed seconds
Timing for main: time 2016-02-05_12:35:46 on domain   3:     .16837 elapsed seconds
Timing for main: time 2016-02-05_12:36:00 on domain   3:     .17307 elapsed seconds
Timing for main: time 2016-02-05_12:35:40 on domain   4:     .20267 elapsed seconds
Timing for main: time 2016-02-05_12:36:00 on domain   4:     .19666 elapsed seconds
Timing for main: time 2016-02-05_12:36:00 on domain   2:    1.62709 elapsed seconds
Timing for main: time 2016-02-05_12:36:00 on domain   1:    5.17998 elapsed seconds
Timing for main: time 2016-02-05_12:36:13 on domain   3:     .16971 elapsed seconds
Timing for main: time 2016-02-05_12:36:26 on domain   3:     .16747 elapsed seconds
Timing for main: time 2016-02-05_12:36:40 on domain   3:     .16163 elapsed seconds
Timing for main: time 2016-02-05_12:36:20 on domain   4:     .20038 elapsed seconds
Timing for main: time 2016-02-05_12:36:40 on domain   4:     .19680 elapsed seconds
Timing for main: time 2016-02-05_12:36:40 on domain   2:    1.61384 elapsed seconds
Timing for main: time 2016-02-05_12:36:53 on domain   3:     .17002 elapsed seconds
Timing for main: time 2016-02-05_12:37:06 on domain   3:     .16202 elapsed seconds
Timing for main: time 2016-02-05_12:37:20 on domain   3:     .16145 elapsed seconds
Timing for main: time 2016-02-05_12:37:00 on domain   4:     .20034 elapsed seconds
Timing for main: time 2016-02-05_12:37:20 on domain   4:     .19611 elapsed seconds
Timing for main: time 2016-02-05_12:37:20 on domain   2:    1.60149 elapsed seconds
Timing for main: time 2016-02-05_12:37:33 on domain   3:     .16985 elapsed seconds
Timing for main: time 2016-02-05_12:37:46 on domain   3:     .16726 elapsed seconds
Timing for main: time 2016-02-05_12:38:00 on domain   3:     .16130 elapsed seconds
Timing for main: time 2016-02-05_12:37:40 on domain   4:     .19868 elapsed seconds
Timing for main: time 2016-02-05_12:38:00 on domain   4:     .19684 elapsed seconds
Timing for main: time 2016-02-05_12:38:00 on domain   2:    1.59830 elapsed seconds
Timing for main: time 2016-02-05_12:38:00 on domain   1:    5.14487 elapsed seconds
Timing for main: time 2016-02-05_12:38:13 on domain   3:     .17010 elapsed seconds
Timing for main: time 2016-02-05_12:38:26 on domain   3:     .16194 elapsed seconds
Timing for main: time 2016-02-05_12:38:40 on domain   3:     .16153 elapsed seconds
Timing for main: time 2016-02-05_12:38:20 on domain   4:     .20249 elapsed seconds
Timing for main: time 2016-02-05_12:38:40 on domain   4:     .19723 elapsed seconds
Timing for main: time 2016-02-05_12:38:40 on domain   2:    1.61064 elapsed seconds
Timing for main: time 2016-02-05_12:38:53 on domain   3:     .16999 elapsed seconds
Timing for main: time 2016-02-05_12:39:06 on domain   3:     .16337 elapsed seconds
Timing for main: time 2016-02-05_12:39:20 on domain   3:     .16130 elapsed seconds
Timing for main: time 2016-02-05_12:39:00 on domain   4:     .20120 elapsed seconds
Timing for main: time 2016-02-05_12:39:20 on domain   4:     .19698 elapsed seconds
Timing for main: time 2016-02-05_12:39:20 on domain   2:    1.59529 elapsed seconds
Timing for main: time 2016-02-05_12:39:33 on domain   3:     .17050 elapsed seconds
Timing for main: time 2016-02-05_12:39:46 on domain   3:     .16082 elapsed seconds
Timing for main: time 2016-02-05_12:40:00 on domain   3:     .16142 elapsed seconds
Timing for main: time 2016-02-05_12:39:40 on domain   4:     .21367 elapsed seconds
Timing for main: time 2016-02-05_12:40:00 on domain   4:     .29548 elapsed seconds
Timing for main: time 2016-02-05_12:40:00 on domain   2:    1.70311 elapsed seconds
Timing for main: time 2016-02-05_12:40:00 on domain   1:    5.23778 elapsed seconds
Timing for main: time 2016-02-05_12:40:13 on domain   3:     .16968 elapsed seconds
Timing for main: time 2016-02-05_12:40:26 on domain   3:     .16162 elapsed seconds
Timing for main: time 2016-02-05_12:40:40 on domain   3:     .16143 elapsed seconds
Timing for main: time 2016-02-05_12:40:20 on domain   4:     .20097 elapsed seconds
Timing for main: time 2016-02-05_12:40:40 on domain   4:     .19664 elapsed seconds
Timing for main: time 2016-02-05_12:40:40 on domain   2:    1.60739 elapsed seconds
Timing for main: time 2016-02-05_12:40:53 on domain   3:     .17785 elapsed seconds
Timing for main: time 2016-02-05_12:41:06 on domain   3:     .16178 elapsed seconds
Timing for main: time 2016-02-05_12:41:20 on domain   3:     .16109 elapsed seconds
Timing for main: time 2016-02-05_12:41:00 on domain   4:     .20137 elapsed seconds
Timing for main: time 2016-02-05_12:41:20 on domain   4:     .19835 elapsed seconds
Timing for main: time 2016-02-05_12:41:20 on domain   2:    1.60327 elapsed seconds
Timing for main: time 2016-02-05_12:41:33 on domain   3:     .17047 elapsed seconds
Timing for main: time 2016-02-05_12:41:46 on domain   3:     .16138 elapsed seconds
Timing for main: time 2016-02-05_12:42:00 on domain   3:     .16234 elapsed seconds
Timing for main: time 2016-02-05_12:41:40 on domain   4:     .20113 elapsed seconds
Timing for main: time 2016-02-05_12:42:00 on domain   4:     .19637 elapsed seconds
Timing for main: time 2016-02-05_12:42:00 on domain   2:    1.59741 elapsed seconds
Timing for main: time 2016-02-05_12:42:00 on domain   1:    5.14200 elapsed seconds
Timing for main: time 2016-02-05_12:42:13 on domain   3:     .17023 elapsed seconds
Timing for main: time 2016-02-05_12:42:26 on domain   3:     .16136 elapsed seconds
Timing for main: time 2016-02-05_12:42:40 on domain   3:     .16993 elapsed seconds
Timing for main: time 2016-02-05_12:42:20 on domain   4:     .20123 elapsed seconds
Timing for main: time 2016-02-05_12:42:40 on domain   4:     .19707 elapsed seconds
Timing for main: time 2016-02-05_12:42:40 on domain   2:    1.62433 elapsed seconds
Timing for main: time 2016-02-05_12:42:53 on domain   3:     .16966 elapsed seconds
Timing for main: time 2016-02-05_12:43:06 on domain   3:     .16184 elapsed seconds
Timing for main: time 2016-02-05_12:43:20 on domain   3:     .16150 elapsed seconds
Timing for main: time 2016-02-05_12:43:00 on domain   4:     .25060 elapsed seconds
Timing for main: time 2016-02-05_12:43:20 on domain   4:     .19624 elapsed seconds
Timing for main: time 2016-02-05_12:43:20 on domain   2:    1.64325 elapsed seconds
Timing for main: time 2016-02-05_12:43:33 on domain   3:     .16977 elapsed seconds
Timing for main: time 2016-02-05_12:43:46 on domain   3:     .16522 elapsed seconds
Timing for main: time 2016-02-05_12:44:00 on domain   3:     .16124 elapsed seconds
Timing for main: time 2016-02-05_12:43:40 on domain   4:     .20102 elapsed seconds
Timing for main: time 2016-02-05_12:44:00 on domain   4:     .19683 elapsed seconds
Timing for main: time 2016-02-05_12:44:00 on domain   2:    1.59731 elapsed seconds
Timing for main: time 2016-02-05_12:44:00 on domain   1:    5.19437 elapsed seconds
Timing for main: time 2016-02-05_12:44:13 on domain   3:     .16990 elapsed seconds
Timing for main: time 2016-02-05_12:44:26 on domain   3:     .16670 elapsed seconds
Timing for main: time 2016-02-05_12:44:40 on domain   3:     .16148 elapsed seconds
Timing for main: time 2016-02-05_12:44:20 on domain   4:     .20117 elapsed seconds
Timing for main: time 2016-02-05_12:44:40 on domain   4:     .19631 elapsed seconds
Timing for main: time 2016-02-05_12:44:40 on domain   2:    1.61443 elapsed seconds
Timing for main: time 2016-02-05_12:44:53 on domain   3:     .17009 elapsed seconds
Timing for main: time 2016-02-05_12:45:06 on domain   3:     .16195 elapsed seconds
Timing for main: time 2016-02-05_12:45:20 on domain   3:     .16151 elapsed seconds
Timing for main: time 2016-02-05_12:45:00 on domain   4:     .20964 elapsed seconds
Timing for main: time 2016-02-05_12:45:20 on domain   4:     .19637 elapsed seconds
Timing for main: time 2016-02-05_12:45:20 on domain   2:    1.60286 elapsed seconds
Timing for main: time 2016-02-05_12:45:33 on domain   3:     .17167 elapsed seconds
Timing for main: time 2016-02-05_12:45:46 on domain   3:     .17858 elapsed seconds
Timing for main: time 2016-02-05_12:46:00 on domain   3:     .16866 elapsed seconds
Timing for main: time 2016-02-05_12:45:40 on domain   4:     .20192 elapsed seconds
Timing for main: time 2016-02-05_12:46:00 on domain   4:     .19642 elapsed seconds
Timing for main: time 2016-02-05_12:46:00 on domain   2:    1.62960 elapsed seconds
Timing for main: time 2016-02-05_12:46:00 on domain   1:    5.17546 elapsed seconds
Timing for main: time 2016-02-05_12:46:13 on domain   3:     .17347 elapsed seconds
Timing for main: time 2016-02-05_12:46:26 on domain   3:     .16149 elapsed seconds
Timing for main: time 2016-02-05_12:46:40 on domain   3:     .16135 elapsed seconds
Timing for main: time 2016-02-05_12:46:20 on domain   4:     .24462 elapsed seconds
Timing for main: time 2016-02-05_12:46:40 on domain   4:     .21121 elapsed seconds
Timing for main: time 2016-02-05_12:46:40 on domain   2:    1.67007 elapsed seconds
Timing for main: time 2016-02-05_12:46:53 on domain   3:     .17023 elapsed seconds
Timing for main: time 2016-02-05_12:47:06 on domain   3:     .16240 elapsed seconds
Timing for main: time 2016-02-05_12:47:20 on domain   3:     .16267 elapsed seconds
Timing for main: time 2016-02-05_12:47:00 on domain   4:     .20118 elapsed seconds
Timing for main: time 2016-02-05_12:47:20 on domain   4:     .20282 elapsed seconds
Timing for main: time 2016-02-05_12:47:20 on domain   2:    1.60184 elapsed seconds
Timing for main: time 2016-02-05_12:47:33 on domain   3:     .17048 elapsed seconds
Timing for main: time 2016-02-05_12:47:46 on domain   3:     .16498 elapsed seconds
Timing for main: time 2016-02-05_12:48:00 on domain   3:     .16167 elapsed seconds
Timing for main: time 2016-02-05_12:47:40 on domain   4:     .20150 elapsed seconds
Timing for main: time 2016-02-05_12:48:00 on domain   4:     .20417 elapsed seconds
Timing for main: time 2016-02-05_12:48:00 on domain   2:    1.61343 elapsed seconds
Timing for main: time 2016-02-05_12:48:00 on domain   1:    5.22126 elapsed seconds
Timing for main: time 2016-02-05_12:48:13 on domain   3:     .17013 elapsed seconds
Timing for main: time 2016-02-05_12:48:26 on domain   3:     .16148 elapsed seconds
Timing for main: time 2016-02-05_12:48:40 on domain   3:     .16195 elapsed seconds
Timing for main: time 2016-02-05_12:48:20 on domain   4:     .20102 elapsed seconds
Timing for main: time 2016-02-05_12:48:40 on domain   4:     .19663 elapsed seconds
Timing for main: time 2016-02-05_12:48:40 on domain   2:    1.60863 elapsed seconds
Timing for main: time 2016-02-05_12:48:53 on domain   3:     .17004 elapsed seconds
Timing for main: time 2016-02-05_12:49:06 on domain   3:     .16201 elapsed seconds
Timing for main: time 2016-02-05_12:49:20 on domain   3:     .16297 elapsed seconds
Timing for main: time 2016-02-05_12:49:00 on domain   4:     .20120 elapsed seconds
Timing for main: time 2016-02-05_12:49:20 on domain   4:     .19809 elapsed seconds
Timing for main: time 2016-02-05_12:49:20 on domain   2:    1.59819 elapsed seconds
Timing for main: time 2016-02-05_12:49:33 on domain   3:     .17007 elapsed seconds
Timing for main: time 2016-02-05_12:49:46 on domain   3:     .16130 elapsed seconds
Timing for main: time 2016-02-05_12:50:00 on domain   3:     .16785 elapsed seconds
Timing for main: time 2016-02-05_12:49:40 on domain   4:     .20107 elapsed seconds
Timing for main: time 2016-02-05_12:50:00 on domain   4:     .20533 elapsed seconds
Timing for main: time 2016-02-05_12:50:00 on domain   2:    1.61020 elapsed seconds
Timing for main: time 2016-02-05_12:50:00 on domain   1:    5.14780 elapsed seconds
Timing for main: time 2016-02-05_12:50:13 on domain   3:     .17022 elapsed seconds
Timing for main: time 2016-02-05_12:50:26 on domain   3:     .16273 elapsed seconds
Timing for main: time 2016-02-05_12:50:40 on domain   3:     .16465 elapsed seconds
Timing for main: time 2016-02-05_12:50:20 on domain   4:     .20111 elapsed seconds
Timing for main: time 2016-02-05_12:50:40 on domain   4:     .19635 elapsed seconds
Timing for main: time 2016-02-05_12:50:40 on domain   2:    1.61536 elapsed seconds
Timing for main: time 2016-02-05_12:50:53 on domain   3:     .17235 elapsed seconds
Timing for main: time 2016-02-05_12:51:06 on domain   3:     .16861 elapsed seconds
Timing for main: time 2016-02-05_12:51:20 on domain   3:     .16185 elapsed seconds
Timing for main: time 2016-02-05_12:51:00 on domain   4:     .20017 elapsed seconds
Timing for main: time 2016-02-05_12:51:20 on domain   4:     .19942 elapsed seconds
Timing for main: time 2016-02-05_12:51:20 on domain   2:    1.60534 elapsed seconds
Timing for main: time 2016-02-05_12:51:33 on domain   3:     .17001 elapsed seconds
Timing for main: time 2016-02-05_12:51:46 on domain   3:     .16138 elapsed seconds
Timing for main: time 2016-02-05_12:52:00 on domain   3:     .16214 elapsed seconds
Timing for main: time 2016-02-05_12:51:40 on domain   4:     .20388 elapsed seconds
Timing for main: time 2016-02-05_12:52:00 on domain   4:     .19551 elapsed seconds
Timing for main: time 2016-02-05_12:52:00 on domain   2:    1.59873 elapsed seconds
Timing for main: time 2016-02-05_12:52:00 on domain   1:    5.14823 elapsed seconds
Timing for main: time 2016-02-05_12:52:13 on domain   3:     .17017 elapsed seconds
Timing for main: time 2016-02-05_12:52:26 on domain   3:     .16176 elapsed seconds
Timing for main: time 2016-02-05_12:52:40 on domain   3:     .16114 elapsed seconds
Timing for main: time 2016-02-05_12:52:20 on domain   4:     .20073 elapsed seconds
Timing for main: time 2016-02-05_12:52:40 on domain   4:     .19806 elapsed seconds
Timing for main: time 2016-02-05_12:52:40 on domain   2:    1.61175 elapsed seconds
Timing for main: time 2016-02-05_12:52:53 on domain   3:     .17246 elapsed seconds
Timing for main: time 2016-02-05_12:53:06 on domain   3:     .16258 elapsed seconds
Timing for main: time 2016-02-05_12:53:20 on domain   3:     .16196 elapsed seconds
Timing for main: time 2016-02-05_12:53:00 on domain   4:     .20132 elapsed seconds
Timing for main: time 2016-02-05_12:53:20 on domain   4:     .19730 elapsed seconds
Timing for main: time 2016-02-05_12:53:20 on domain   2:    1.60729 elapsed seconds
Timing for main: time 2016-02-05_12:53:33 on domain   3:     .17003 elapsed seconds
Timing for main: time 2016-02-05_12:53:46 on domain   3:     .16123 elapsed seconds
Timing for main: time 2016-02-05_12:54:00 on domain   3:     .16295 elapsed seconds
Timing for main: time 2016-02-05_12:53:40 on domain   4:     .20096 elapsed seconds
Timing for main: time 2016-02-05_12:54:00 on domain   4:     .19690 elapsed seconds
Timing for main: time 2016-02-05_12:54:00 on domain   2:    1.59499 elapsed seconds
Timing for main: time 2016-02-05_12:54:00 on domain   1:    5.15068 elapsed seconds
Timing for main: time 2016-02-05_12:54:13 on domain   3:     .17036 elapsed seconds
Timing for main: time 2016-02-05_12:54:26 on domain   3:     .16087 elapsed seconds
Timing for main: time 2016-02-05_12:54:40 on domain   3:     .16339 elapsed seconds
Timing for main: time 2016-02-05_12:54:20 on domain   4:     .20088 elapsed seconds
Timing for main: time 2016-02-05_12:54:40 on domain   4:     .19699 elapsed seconds
Timing for main: time 2016-02-05_12:54:40 on domain   2:    1.61160 elapsed seconds
Timing for main: time 2016-02-05_12:54:53 on domain   3:     .17049 elapsed seconds
Timing for main: time 2016-02-05_12:55:06 on domain   3:     .16177 elapsed seconds
Timing for main: time 2016-02-05_12:55:20 on domain   3:     .16149 elapsed seconds
Timing for main: time 2016-02-05_12:55:00 on domain   4:     .20950 elapsed seconds
Timing for main: time 2016-02-05_12:55:20 on domain   4:     .19582 elapsed seconds
Timing for main: time 2016-02-05_12:55:20 on domain   2:    1.60194 elapsed seconds
Timing for main: time 2016-02-05_12:55:33 on domain   3:     .16981 elapsed seconds
Timing for main: time 2016-02-05_12:55:46 on domain   3:     .16137 elapsed seconds
Timing for main: time 2016-02-05_12:56:00 on domain   3:     .16148 elapsed seconds
Timing for main: time 2016-02-05_12:55:40 on domain   4:     .20109 elapsed seconds
Timing for main: time 2016-02-05_12:56:00 on domain   4:     .19678 elapsed seconds
Timing for main: time 2016-02-05_12:56:00 on domain   2:    1.59700 elapsed seconds
Timing for main: time 2016-02-05_12:56:00 on domain   1:    5.14242 elapsed seconds
Timing for main: time 2016-02-05_12:56:13 on domain   3:     .17772 elapsed seconds
Timing for main: time 2016-02-05_12:56:26 on domain   3:     .16080 elapsed seconds
Timing for main: time 2016-02-05_12:56:40 on domain   3:     .16141 elapsed seconds
Timing for main: time 2016-02-05_12:56:20 on domain   4:     .20180 elapsed seconds
Timing for main: time 2016-02-05_12:56:40 on domain   4:     .19678 elapsed seconds
Timing for main: time 2016-02-05_12:56:40 on domain   2:    1.61586 elapsed seconds
Timing for main: time 2016-02-05_12:56:53 on domain   3:     .17022 elapsed seconds
Timing for main: time 2016-02-05_12:57:06 on domain   3:     .16153 elapsed seconds
Timing for main: time 2016-02-05_12:57:20 on domain   3:     .16180 elapsed seconds
Timing for main: time 2016-02-05_12:57:00 on domain   4:     .20172 elapsed seconds
Timing for main: time 2016-02-05_12:57:20 on domain   4:     .19658 elapsed seconds
Timing for main: time 2016-02-05_12:57:20 on domain   2:    1.60694 elapsed seconds
Timing for main: time 2016-02-05_12:57:33 on domain   3:     .17019 elapsed seconds
Timing for main: time 2016-02-05_12:57:46 on domain   3:     .16144 elapsed seconds
Timing for main: time 2016-02-05_12:58:00 on domain   3:     .16162 elapsed seconds
Timing for main: time 2016-02-05_12:57:40 on domain   4:     .20174 elapsed seconds
Timing for main: time 2016-02-05_12:58:00 on domain   4:     .19863 elapsed seconds
Timing for main: time 2016-02-05_12:58:00 on domain   2:    1.59827 elapsed seconds
Timing for main: time 2016-02-05_12:58:00 on domain   1:    5.15500 elapsed seconds
  photolysis_driver: called for domain  1
Timing for main: time 2016-02-05_12:58:13 on domain   3:     .16995 elapsed seconds
Timing for main: time 2016-02-05_12:58:26 on domain   3:     .16246 elapsed seconds
Timing for main: time 2016-02-05_12:58:40 on domain   3:     .16256 elapsed seconds
Timing for main: time 2016-02-05_12:58:20 on domain   4:     .20129 elapsed seconds
Timing for main: time 2016-02-05_12:58:40 on domain   4:     .19703 elapsed seconds
Timing for main: time 2016-02-05_12:58:40 on domain   2:    1.61981 elapsed seconds
Timing for main: time 2016-02-05_12:58:53 on domain   3:     .16995 elapsed seconds
Timing for main: time 2016-02-05_12:59:06 on domain   3:     .16119 elapsed seconds
Timing for main: time 2016-02-05_12:59:20 on domain   3:     .16388 elapsed seconds
Timing for main: time 2016-02-05_12:59:00 on domain   4:     .20191 elapsed seconds
Timing for main: time 2016-02-05_12:59:20 on domain   4:     .19624 elapsed seconds
Timing for main: time 2016-02-05_12:59:20 on domain   2:    1.59906 elapsed seconds
  photolysis_driver: called for domain  2
Timing for main: time 2016-02-05_12:59:33 on domain   3:     .17060 elapsed seconds
Timing for main: time 2016-02-05_12:59:46 on domain   3:     .16105 elapsed seconds
  photolysis_driver: called for domain  3
Timing for main: time 2016-02-05_13:00:00 on domain   3:     .94125 elapsed seconds
Timing for main: time 2016-02-05_12:59:40 on domain   4:     .20030 elapsed seconds
  photolysis_driver: called for domain  4
Timing for main: time 2016-02-05_13:00:00 on domain   4:    1.07832 elapsed seconds
Timing for main: time 2016-02-05_13:00:00 on domain   2:    4.22254 elapsed seconds
Timing for main: time 2016-02-05_13:00:00 on domain   1:    8.35932 elapsed seconds
Timing for Writing wrfout_d01_2016-02-05_13:00:00 for domain        1:    1.50092 elapsed seconds
  HOURLY EMISSIONS UPDATE TIME     3600.0        .0
 mediation_integrate: med_read_wrf_chem_emissions: Read emissions for time 2016-02-05_13:00:00
 **WARNING** Time in input file not being checked **WARNING**
Timing for Writing wrfout_d02_2016-02-05_13:00:00 for domain        2:    2.19019 elapsed seconds
Timing for Writing wrfout_d03_2016-02-05_13:00:00 for domain        3:    2.33291 elapsed seconds
Timing for main: time 2016-02-05_13:00:13 on domain   3:    2.71001 elapsed seconds
Timing for main: time 2016-02-05_13:00:26 on domain   3:     .19235 elapsed seconds
Timing for main: time 2016-02-05_13:00:40 on domain   3:     .18736 elapsed seconds
Timing for Writing wrfout_d04_2016-02-05_13:00:00 for domain        4:    1.98654 elapsed seconds
Timing for main: time 2016-02-05_13:00:20 on domain   4:    2.81339 elapsed seconds
Timing for main: time 2016-02-05_13:00:40 on domain   4:     .19618 elapsed seconds
Timing for main: time 2016-02-05_13:00:40 on domain   2:    9.26332 elapsed seconds
Timing for main: time 2016-02-05_13:00:53 on domain   3:     .17035 elapsed seconds
Timing for main: time 2016-02-05_13:01:06 on domain   3:     .16232 elapsed seconds
Timing for main: time 2016-02-05_13:01:20 on domain   3:     .16925 elapsed seconds
Timing for main: time 2016-02-05_13:01:00 on domain   4:     .20129 elapsed seconds
Timing for main: time 2016-02-05_13:01:20 on domain   4:     .19697 elapsed seconds
Timing for main: time 2016-02-05_13:01:20 on domain   2:    1.60419 elapsed seconds
Timing for main: time 2016-02-05_13:01:33 on domain   3:     .17027 elapsed seconds
Timing for main: time 2016-02-05_13:01:46 on domain   3:     .16238 elapsed seconds
Timing for main: time 2016-02-05_13:02:00 on domain   3:     .16129 elapsed seconds
Timing for main: time 2016-02-05_13:01:40 on domain   4:     .20122 elapsed seconds
Timing for main: time 2016-02-05_13:02:00 on domain   4:     .19666 elapsed seconds
Timing for main: time 2016-02-05_13:02:00 on domain   2:    1.59716 elapsed seconds
Timing for main: time 2016-02-05_13:02:00 on domain   1:   16.49840 elapsed seconds
Timing for main: time 2016-02-05_13:02:13 on domain   3:     .16993 elapsed seconds
Timing for main: time 2016-02-05_13:02:26 on domain   3:     .16220 elapsed seconds
Timing for main: time 2016-02-05_13:02:40 on domain   3:     .16178 elapsed seconds
Timing for main: time 2016-02-05_13:02:20 on domain   4:     .20114 elapsed seconds
Timing for main: time 2016-02-05_13:02:40 on domain   4:     .19689 elapsed seconds
Timing for main: time 2016-02-05_13:02:40 on domain   2:    1.61062 elapsed seconds
Timing for main: time 2016-02-05_13:02:53 on domain   3:     .17039 elapsed seconds
Timing for main: time 2016-02-05_13:03:06 on domain   3:     .16182 elapsed seconds
Timing for main: time 2016-02-05_13:03:20 on domain   3:     .16146 elapsed seconds
Timing for main: time 2016-02-05_13:03:00 on domain   4:     .20016 elapsed seconds
Timing for main: time 2016-02-05_13:03:20 on domain   4:     .19926 elapsed seconds
Timing for main: time 2016-02-05_13:03:20 on domain   2:    1.60125 elapsed seconds
Timing for main: time 2016-02-05_13:03:33 on domain   3:     .17033 elapsed seconds
Timing for main: time 2016-02-05_13:03:46 on domain   3:     .16162 elapsed seconds
Timing for main: time 2016-02-05_13:04:00 on domain   3:     .16249 elapsed seconds
Timing for main: time 2016-02-05_13:03:40 on domain   4:     .20114 elapsed seconds
Timing for main: time 2016-02-05_13:04:00 on domain   4:     .19861 elapsed seconds
Timing for main: time 2016-02-05_13:04:00 on domain   2:    1.60820 elapsed seconds
Timing for main: time 2016-02-05_13:04:00 on domain   1:    5.15379 elapsed seconds
Timing for main: time 2016-02-05_13:04:13 on domain   3:     .18880 elapsed seconds
Timing for main: time 2016-02-05_13:04:26 on domain   3:     .16876 elapsed seconds
Timing for main: time 2016-02-05_13:04:40 on domain   3:     .16220 elapsed seconds
Timing for main: time 2016-02-05_13:04:20 on domain   4:     .20105 elapsed seconds
Timing for main: time 2016-02-05_13:04:40 on domain   4:     .20003 elapsed seconds
Timing for main: time 2016-02-05_13:04:40 on domain   2:    1.64078 elapsed seconds
Timing for main: time 2016-02-05_13:04:53 on domain   3:     .16982 elapsed seconds
Timing for main: time 2016-02-05_13:05:06 on domain   3:     .16173 elapsed seconds
Timing for main: time 2016-02-05_13:05:20 on domain   3:     .17513 elapsed seconds
Timing for main: time 2016-02-05_13:05:00 on domain   4:     .20966 elapsed seconds
Timing for main: time 2016-02-05_13:05:20 on domain   4:     .20002 elapsed seconds
Timing for main: time 2016-02-05_13:05:20 on domain   2:    1.62445 elapsed seconds
Timing for main: time 2016-02-05_13:05:33 on domain   3:     .17047 elapsed seconds
Timing for main: time 2016-02-05_13:05:46 on domain   3:     .16580 elapsed seconds
Timing for main: time 2016-02-05_13:06:00 on domain   3:     .18224 elapsed seconds
Timing for main: time 2016-02-05_13:05:40 on domain   4:     .20164 elapsed seconds
Timing for main: time 2016-02-05_13:06:00 on domain   4:     .19631 elapsed seconds
Timing for main: time 2016-02-05_13:06:00 on domain   2:    1.61954 elapsed seconds
Timing for main: time 2016-02-05_13:06:00 on domain   1:    5.22141 elapsed seconds
Timing for main: time 2016-02-05_13:06:13 on domain   3:     .17027 elapsed seconds
Timing for main: time 2016-02-05_13:06:26 on domain   3:     .16908 elapsed seconds
Timing for main: time 2016-02-05_13:06:40 on domain   3:     .16155 elapsed seconds
Timing for main: time 2016-02-05_13:06:20 on domain   4:     .20196 elapsed seconds
Timing for main: time 2016-02-05_13:06:40 on domain   4:     .19651 elapsed seconds
Timing for main: time 2016-02-05_13:06:40 on domain   2:    1.61963 elapsed seconds
Timing for main: time 2016-02-05_13:06:53 on domain   3:     .17014 elapsed seconds
Timing for main: time 2016-02-05_13:07:06 on domain   3:     .16134 elapsed seconds
Timing for main: time 2016-02-05_13:07:20 on domain   3:     .16179 elapsed seconds
Timing for main: time 2016-02-05_13:07:00 on domain   4:     .20109 elapsed seconds
Timing for main: time 2016-02-05_13:07:20 on domain   4:     .20252 elapsed seconds
Timing for main: time 2016-02-05_13:07:20 on domain   2:    1.60801 elapsed seconds
Timing for main: time 2016-02-05_13:07:33 on domain   3:     .17017 elapsed seconds
Timing for main: time 2016-02-05_13:07:46 on domain   3:     .16151 elapsed seconds
Timing for main: time 2016-02-05_13:08:00 on domain   3:     .16129 elapsed seconds
Timing for main: time 2016-02-05_13:07:40 on domain   4:     .20183 elapsed seconds
Timing for main: time 2016-02-05_13:08:00 on domain   4:     .19691 elapsed seconds
Timing for main: time 2016-02-05_13:08:00 on domain   2:    1.59636 elapsed seconds
Timing for main: time 2016-02-05_13:08:00 on domain   1:    5.15240 elapsed seconds
Timing for main: time 2016-02-05_13:08:13 on domain   3:     .17031 elapsed seconds
Timing for main: time 2016-02-05_13:08:26 on domain   3:     .16229 elapsed seconds
Timing for main: time 2016-02-05_13:08:40 on domain   3:     .16173 elapsed seconds
Timing for main: time 2016-02-05_13:08:20 on domain   4:     .20117 elapsed seconds
Timing for main: time 2016-02-05_13:08:40 on domain   4:     .19696 elapsed seconds
Timing for main: time 2016-02-05_13:08:40 on domain   2:    1.61286 elapsed seconds
Timing for main: time 2016-02-05_13:08:53 on domain   3:     .17023 elapsed seconds
Timing for main: time 2016-02-05_13:09:06 on domain   3:     .16439 elapsed seconds
Timing for main: time 2016-02-05_13:09:20 on domain   3:     .16137 elapsed seconds
Timing for main: time 2016-02-05_13:09:00 on domain   4:     .20091 elapsed seconds
Timing for main: time 2016-02-05_13:09:20 on domain   4:     .19759 elapsed seconds
Timing for main: time 2016-02-05_13:09:20 on domain   2:    1.60839 elapsed seconds
Timing for main: time 2016-02-05_13:09:33 on domain   3:     .17050 elapsed seconds
Timing for main: time 2016-02-05_13:09:46 on domain   3:     .16180 elapsed seconds
Timing for main: time 2016-02-05_13:10:00 on domain   3:     .16200 elapsed seconds
Timing for main: time 2016-02-05_13:09:40 on domain   4:     .20059 elapsed seconds
Timing for main: time 2016-02-05_13:10:00 on domain   4:     .20559 elapsed seconds
Timing for main: time 2016-02-05_13:10:00 on domain   2:    1.60448 elapsed seconds
Timing for main: time 2016-02-05_13:10:00 on domain   1:    5.15442 elapsed seconds
Timing for main: time 2016-02-05_13:10:13 on domain   3:     .17015 elapsed seconds
Timing for main: time 2016-02-05_13:10:26 on domain   3:     .16212 elapsed seconds
Timing for main: time 2016-02-05_13:10:40 on domain   3:     .16163 elapsed seconds
Timing for main: time 2016-02-05_13:10:20 on domain   4:     .20687 elapsed seconds
Timing for main: time 2016-02-05_13:10:40 on domain   4:     .19658 elapsed seconds
Timing for main: time 2016-02-05_13:10:40 on domain   2:    1.61906 elapsed seconds
Timing for main: time 2016-02-05_13:10:53 on domain   3:     .16890 elapsed seconds
Timing for main: time 2016-02-05_13:11:06 on domain   3:     .16173 elapsed seconds
Timing for main: time 2016-02-05_13:11:20 on domain   3:     .16219 elapsed seconds
Timing for main: time 2016-02-05_13:11:00 on domain   4:     .20121 elapsed seconds
Timing for main: time 2016-02-05_13:11:20 on domain   4:     .19649 elapsed seconds
Timing for main: time 2016-02-05_13:11:20 on domain   2:    1.59809 elapsed seconds
Timing for main: time 2016-02-05_13:11:33 on domain   3:     .17766 elapsed seconds
Timing for main: time 2016-02-05_13:11:46 on domain   3:     .20163 elapsed seconds
Timing for main: time 2016-02-05_13:12:00 on domain   3:     .21933 elapsed seconds
Timing for main: time 2016-02-05_13:11:40 on domain   4:     .20073 elapsed seconds
Timing for main: time 2016-02-05_13:12:00 on domain   4:     .19699 elapsed seconds
Timing for main: time 2016-02-05_13:12:00 on domain   2:    1.70179 elapsed seconds
Timing for main: time 2016-02-05_13:12:00 on domain   1:    5.25571 elapsed seconds
Timing for main: time 2016-02-05_13:12:13 on domain   3:     .17015 elapsed seconds
Timing for main: time 2016-02-05_13:12:26 on domain   3:     .16160 elapsed seconds
Timing for main: time 2016-02-05_13:12:40 on domain   3:     .16430 elapsed seconds
Timing for main: time 2016-02-05_13:12:20 on domain   4:     .20138 elapsed seconds
Timing for main: time 2016-02-05_13:12:40 on domain   4:     .19644 elapsed seconds
Timing for main: time 2016-02-05_13:12:40 on domain   2:    1.61346 elapsed seconds
Timing for main: time 2016-02-05_13:12:53 on domain   3:     .16992 elapsed seconds
Timing for main: time 2016-02-05_13:13:06 on domain   3:     .16177 elapsed seconds
Timing for main: time 2016-02-05_13:13:20 on domain   3:     .16265 elapsed seconds
Timing for main: time 2016-02-05_13:13:00 on domain   4:     .20123 elapsed seconds
Timing for main: time 2016-02-05_13:13:20 on domain   4:     .19873 elapsed seconds
Timing for main: time 2016-02-05_13:13:20 on domain   2:    1.59985 elapsed seconds
Timing for main: time 2016-02-05_13:13:33 on domain   3:     .17081 elapsed seconds
Timing for main: time 2016-02-05_13:13:46 on domain   3:     .16120 elapsed seconds
Timing for main: time 2016-02-05_13:14:00 on domain   3:     .16144 elapsed seconds
Timing for main: time 2016-02-05_13:13:40 on domain   4:     .22617 elapsed seconds
Timing for main: time 2016-02-05_13:14:00 on domain   4:     .27918 elapsed seconds
Timing for main: time 2016-02-05_13:14:00 on domain   2:    1.70192 elapsed seconds
Timing for main: time 2016-02-05_13:14:00 on domain   1:    5.24436 elapsed seconds
Timing for main: time 2016-02-05_13:14:13 on domain   3:     .17031 elapsed seconds
Timing for main: time 2016-02-05_13:14:26 on domain   3:     .16335 elapsed seconds
Timing for main: time 2016-02-05_13:14:40 on domain   3:     .16168 elapsed seconds
Timing for main: time 2016-02-05_13:14:20 on domain   4:     .22724 elapsed seconds
Timing for main: time 2016-02-05_13:14:40 on domain   4:     .22474 elapsed seconds
Timing for main: time 2016-02-05_13:14:40 on domain   2:    1.67652 elapsed seconds
Timing for main: time 2016-02-05_13:14:53 on domain   3:     .17018 elapsed seconds
Timing for main: time 2016-02-05_13:15:06 on domain   3:     .16202 elapsed seconds
Timing for main: time 2016-02-05_13:15:20 on domain   3:     .16191 elapsed seconds
Timing for main: time 2016-02-05_13:15:00 on domain   4:     .20968 elapsed seconds
Timing for main: time 2016-02-05_13:15:20 on domain   4:     .19740 elapsed seconds
Timing for main: time 2016-02-05_13:15:20 on domain   2:    1.60422 elapsed seconds
Timing for main: time 2016-02-05_13:15:33 on domain   3:     .17038 elapsed seconds
Timing for main: time 2016-02-05_13:15:46 on domain   3:     .16235 elapsed seconds
Timing for main: time 2016-02-05_13:16:00 on domain   3:     .16199 elapsed seconds
Timing for main: time 2016-02-05_13:15:40 on domain   4:     .24384 elapsed seconds
Timing for main: time 2016-02-05_13:16:00 on domain   4:     .24598 elapsed seconds
Timing for main: time 2016-02-05_13:16:00 on domain   2:    1.70452 elapsed seconds
Timing for main: time 2016-02-05_13:16:00 on domain   1:    5.31480 elapsed seconds
Timing for main: time 2016-02-05_13:16:13 on domain   3:     .17004 elapsed seconds
Timing for main: time 2016-02-05_13:16:26 on domain   3:     .16197 elapsed seconds
Timing for main: time 2016-02-05_13:16:40 on domain   3:     .16905 elapsed seconds
Timing for main: time 2016-02-05_13:16:20 on domain   4:     .23322 elapsed seconds
Timing for main: time 2016-02-05_13:16:40 on domain   4:     .22297 elapsed seconds
Timing for main: time 2016-02-05_13:16:40 on domain   2:    1.67832 elapsed seconds
Timing for main: time 2016-02-05_13:16:53 on domain   3:     .16992 elapsed seconds
Timing for main: time 2016-02-05_13:17:06 on domain   3:     .16181 elapsed seconds
Timing for main: time 2016-02-05_13:17:20 on domain   3:     .16350 elapsed seconds
Timing for main: time 2016-02-05_13:17:00 on domain   4:     .20100 elapsed seconds
Timing for main: time 2016-02-05_13:17:20 on domain   4:     .19756 elapsed seconds
Timing for main: time 2016-02-05_13:17:20 on domain   2:    1.60066 elapsed seconds
Timing for main: time 2016-02-05_13:17:33 on domain   3:     .16999 elapsed seconds
Timing for main: time 2016-02-05_13:17:46 on domain   3:     .16187 elapsed seconds
[...]
Timing for main: time 2016-02-05_17:36:00 on domain   2:    1.61076 elapsed seconds
Timing for main: time 2016-02-05_17:36:00 on domain   1:    5.34767 elapsed seconds
Timing for main: time 2016-02-05_17:36:13 on domain   3:     .17344 elapsed seconds
Timing for main: time 2016-02-05_17:36:26 on domain   3:     .16268 elapsed seconds
Timing for main: time 2016-02-05_17:36:40 on domain   3:     .16470 elapsed seconds
Timing for main: time 2016-02-05_17:36:20 on domain   4:     .20211 elapsed seconds
Timing for main: time 2016-02-05_17:36:40 on domain   4:     .19815 elapsed seconds
Timing for main: time 2016-02-05_17:36:40 on domain   2:    1.61810 elapsed seconds
Timing for main: time 2016-02-05_17:36:53 on domain   3:     .17426 elapsed seconds
Timing for main: time 2016-02-05_17:37:06 on domain   3:     .16417 elapsed seconds
Timing for main: time 2016-02-05_17:37:20 on domain   3:     .17058 elapsed seconds
Timing for main: time 2016-02-05_17:37:00 on domain   4:     .20123 elapsed seconds
Timing for main: time 2016-02-05_17:37:20 on domain   4:     .20005 elapsed seconds
Timing for main: time 2016-02-05_17:37:20 on domain   2:    1.61502 elapsed seconds
Timing for main: time 2016-02-05_17:37:33 on domain   3:     .19327 elapsed seconds
Timing for main: time 2016-02-05_17:37:46 on domain   3:     .16757 elapsed seconds
Timing for main: time 2016-02-05_17:38:00 on domain   3:     .16368 elapsed seconds
Timing for main: time 2016-02-05_17:37:40 on domain   4:     .20051 elapsed seconds
Timing for main: time 2016-02-05_17:38:00 on domain   4:     .19644 elapsed seconds
Timing for main: time 2016-02-05_17:38:00 on domain   2:    1.62505 elapsed seconds
Timing for main: time 2016-02-05_17:38:00 on domain   1:    5.19097 elapsed seconds
Timing for main: time 2016-02-05_17:38:13 on domain   3:     .17338 elapsed seconds
Timing for main: time 2016-02-05_17:38:26 on domain   3:     .16242 elapsed seconds
Timing for main: time 2016-02-05_17:38:40 on domain   3:     .16311 elapsed seconds
Timing for main: time 2016-02-05_17:38:20 on domain   4:     .20131 elapsed seconds
Timing for main: time 2016-02-05_17:38:40 on domain   4:     .19713 elapsed seconds
Timing for main: time 2016-02-05_17:38:40 on domain   2:    1.61486 elapsed seconds
Timing for main: time 2016-02-05_17:38:53 on domain   3:     .17309 elapsed seconds
Timing for main: time 2016-02-05_17:39:06 on domain   3:     .16459 elapsed seconds
Timing for main: time 2016-02-05_17:39:20 on domain   3:     .16352 elapsed seconds
Timing for main: time 2016-02-05_17:39:00 on domain   4:     .20102 elapsed seconds
Timing for main: time 2016-02-05_17:39:20 on domain   4:     .19715 elapsed seconds
Timing for main: time 2016-02-05_17:39:20 on domain   2:    1.60377 elapsed seconds
Timing for main: time 2016-02-05_17:39:33 on domain   3:     .17347 elapsed seconds
Timing for main: time 2016-02-05_17:39:46 on domain   3:     .16705 elapsed seconds
Timing for main: time 2016-02-05_17:40:00 on domain   3:     .16276 elapsed seconds
Timing for main: time 2016-02-05_17:39:40 on domain   4:     .20112 elapsed seconds
Timing for main: time 2016-02-05_17:40:00 on domain   4:     .20806 elapsed seconds
Timing for main: time 2016-02-05_17:40:00 on domain   2:    1.61482 elapsed seconds
Timing for main: time 2016-02-05_17:40:00 on domain   1:    5.16560 elapsed seconds
Timing for main: time 2016-02-05_17:40:13 on domain   3:     .17538 elapsed seconds
Timing for main: time 2016-02-05_17:40:26 on domain   3:     .17576 elapsed seconds
Timing for main: time 2016-02-05_17:40:40 on domain   3:     .16280 elapsed seconds
Timing for main: time 2016-02-05_17:40:20 on domain   4:     .20147 elapsed seconds
Timing for main: time 2016-02-05_17:40:40 on domain   4:     .19750 elapsed seconds
Timing for main: time 2016-02-05_17:40:40 on domain   2:    1.63384 elapsed seconds
Timing for main: time 2016-02-05_17:40:53 on domain   3:     .17364 elapsed seconds
Timing for main: time 2016-02-05_17:41:06 on domain   3:     .16366 elapsed seconds
Timing for main: time 2016-02-05_17:41:20 on domain   3:     .16236 elapsed seconds
Timing for main: time 2016-02-05_17:41:00 on domain   4:     .20044 elapsed seconds
Timing for main: time 2016-02-05_17:41:20 on domain   4:     .19967 elapsed seconds
Timing for main: time 2016-02-05_17:41:20 on domain   2:    1.61319 elapsed seconds
Timing for main: time 2016-02-05_17:41:33 on domain   3:     .17337 elapsed seconds
Timing for main: time 2016-02-05_17:41:46 on domain   3:     .16387 elapsed seconds
Timing for main: time 2016-02-05_17:42:00 on domain   3:     .16313 elapsed seconds
Timing for main: time 2016-02-05_17:41:40 on domain   4:     .20116 elapsed seconds
Timing for main: time 2016-02-05_17:42:00 on domain   4:     .19726 elapsed seconds
Timing for main: time 2016-02-05_17:42:00 on domain   2:    1.60045 elapsed seconds
Timing for main: time 2016-02-05_17:42:00 on domain   1:    5.18673 elapsed seconds
Timing for main: time 2016-02-05_17:42:13 on domain   3:     .17347 elapsed seconds
Timing for main: time 2016-02-05_17:42:26 on domain   3:     .17030 elapsed seconds
Timing for main: time 2016-02-05_17:42:40 on domain   3:     .16334 elapsed seconds
Timing for main: time 2016-02-05_17:42:20 on domain   4:     .20122 elapsed seconds
Timing for main: time 2016-02-05_17:42:40 on domain   4:     .19831 elapsed seconds
Timing for main: time 2016-02-05_17:42:40 on domain   2:    1.62671 elapsed seconds
Timing for main: time 2016-02-05_17:42:53 on domain   3:     .17320 elapsed seconds
Timing for main: time 2016-02-05_17:43:06 on domain   3:     .16247 elapsed seconds
Timing for main: time 2016-02-05_17:43:20 on domain   3:     .16417 elapsed seconds
Timing for main: time 2016-02-05_17:43:00 on domain   4:     .20143 elapsed seconds
Timing for main: time 2016-02-05_17:43:20 on domain   4:     .19709 elapsed seconds
Timing for main: time 2016-02-05_17:43:20 on domain   2:    1.60058 elapsed seconds
Timing for main: time 2016-02-05_17:43:33 on domain   3:     .17308 elapsed seconds
Timing for main: time 2016-02-05_17:43:46 on domain   3:     .16447 elapsed seconds
Timing for main: time 2016-02-05_17:44:00 on domain   3:     .16281 elapsed seconds
Timing for main: time 2016-02-05_17:43:40 on domain   4:     .25024 elapsed seconds
Timing for main: time 2016-02-05_17:44:00 on domain   4:     .19467 elapsed seconds
Timing for main: time 2016-02-05_17:44:00 on domain   2:    1.65214 elapsed seconds
Timing for main: time 2016-02-05_17:44:00 on domain   1:    5.21099 elapsed seconds
Timing for main: time 2016-02-05_17:44:13 on domain   3:     .17330 elapsed seconds
Timing for main: time 2016-02-05_17:44:26 on domain   3:     .16515 elapsed seconds
Timing for main: time 2016-02-05_17:44:40 on domain   3:     .16789 elapsed seconds
Timing for main: time 2016-02-05_17:44:20 on domain   4:     .20155 elapsed seconds
Timing for main: time 2016-02-05_17:44:40 on domain   4:     .19699 elapsed seconds
Timing for main: time 2016-02-05_17:44:40 on domain   2:    1.62431 elapsed seconds
Timing for main: time 2016-02-05_17:44:53 on domain   3:     .17314 elapsed seconds
Timing for main: time 2016-02-05_17:45:06 on domain   3:     .16303 elapsed seconds
Timing for main: time 2016-02-05_17:45:20 on domain   3:     .16301 elapsed seconds
Timing for main: time 2016-02-05_17:45:00 on domain   4:     .25182 elapsed seconds
Timing for main: time 2016-02-05_17:45:20 on domain   4:     .22969 elapsed seconds
Timing for main: time 2016-02-05_17:45:20 on domain   2:    1.68343 elapsed seconds
Timing for main: time 2016-02-05_17:45:33 on domain   3:     .17300 elapsed seconds
Timing for main: time 2016-02-05_17:45:46 on domain   3:     .16428 elapsed seconds
Timing for main: time 2016-02-05_17:46:00 on domain   3:     .16447 elapsed seconds
Timing for main: time 2016-02-05_17:45:40 on domain   4:     .20117 elapsed seconds
Timing for main: time 2016-02-05_17:46:00 on domain   4:     .19717 elapsed seconds
Timing for main: time 2016-02-05_17:46:00 on domain   2:    1.60583 elapsed seconds
Timing for main: time 2016-02-05_17:46:00 on domain   1:    5.24521 elapsed seconds
Timing for main: time 2016-02-05_17:46:13 on domain   3:     .17329 elapsed seconds
Timing for main: time 2016-02-05_17:46:26 on domain   3:     .16673 elapsed seconds
Timing for main: time 2016-02-05_17:46:40 on domain   3:     .16412 elapsed seconds
Timing for main: time 2016-02-05_17:46:20 on domain   4:     .20200 elapsed seconds
Timing for main: time 2016-02-05_17:46:40 on domain   4:     .19999 elapsed seconds
Timing for main: time 2016-02-05_17:46:40 on domain   2:    1.63250 elapsed seconds
Timing for main: time 2016-02-05_17:46:53 on domain   3:     .17392 elapsed seconds
Timing for main: time 2016-02-05_17:47:06 on domain   3:     .16338 elapsed seconds
Timing for main: time 2016-02-05_17:47:20 on domain   3:     .16333 elapsed seconds
Timing for main: time 2016-02-05_17:47:00 on domain   4:     .20162 elapsed seconds
Timing for main: time 2016-02-05_17:47:20 on domain   4:     .19710 elapsed seconds
Timing for main: time 2016-02-05_17:47:20 on domain   2:    1.60115 elapsed seconds
Timing for main: time 2016-02-05_17:47:33 on domain   3:     .18090 elapsed seconds
Timing for main: time 2016-02-05_17:47:46 on domain   3:     .16344 elapsed seconds
Timing for main: time 2016-02-05_17:48:00 on domain   3:     .16350 elapsed seconds
Timing for main: time 2016-02-05_17:47:40 on domain   4:     .20175 elapsed seconds
Timing for main: time 2016-02-05_17:48:00 on domain   4:     .19587 elapsed seconds
Timing for main: time 2016-02-05_17:48:00 on domain   2:    1.60740 elapsed seconds
Timing for main: time 2016-02-05_17:48:00 on domain   1:    5.18013 elapsed seconds
Timing for main: time 2016-02-05_17:48:13 on domain   3:     .17472 elapsed seconds
Timing for main: time 2016-02-05_17:48:26 on domain   3:     .16279 elapsed seconds
Timing for main: time 2016-02-05_17:48:40 on domain   3:     .16644 elapsed seconds
Timing for main: time 2016-02-05_17:48:20 on domain   4:     .22608 elapsed seconds
Timing for main: time 2016-02-05_17:48:40 on domain   4:     .19864 elapsed seconds
Timing for main: time 2016-02-05_17:48:40 on domain   2:    1.65729 elapsed seconds
Timing for main: time 2016-02-05_17:48:53 on domain   3:     .17373 elapsed seconds
Timing for main: time 2016-02-05_17:49:06 on domain   3:     .16471 elapsed seconds
Timing for main: time 2016-02-05_17:49:20 on domain   3:     .16404 elapsed seconds
Timing for main: time 2016-02-05_17:49:00 on domain   4:     .20165 elapsed seconds
Timing for main: time 2016-02-05_17:49:20 on domain   4:     .19671 elapsed seconds
Timing for main: time 2016-02-05_17:49:20 on domain   2:    1.60526 elapsed seconds
Timing for main: time 2016-02-05_17:49:33 on domain   3:     .17333 elapsed seconds
Timing for main: time 2016-02-05_17:49:46 on domain   3:     .16291 elapsed seconds
Timing for main: time 2016-02-05_17:50:00 on domain   3:     .16426 elapsed seconds
Timing for main: time 2016-02-05_17:49:40 on domain   4:     .20193 elapsed seconds
Timing for main: time 2016-02-05_17:50:00 on domain   4:     .20497 elapsed seconds
Timing for main: time 2016-02-05_17:50:00 on domain   2:    1.61195 elapsed seconds
Timing for main: time 2016-02-05_17:50:00 on domain   1:    5.20652 elapsed seconds
Timing for main: time 2016-02-05_17:50:13 on domain   3:     .17308 elapsed seconds
Timing for main: time 2016-02-05_17:50:26 on domain   3:     .17835 elapsed seconds
Timing for main: time 2016-02-05_17:50:40 on domain   3:     .16408 elapsed seconds
Timing for main: time 2016-02-05_17:50:20 on domain   4:     .20176 elapsed seconds
Timing for main: time 2016-02-05_17:50:40 on domain   4:     .19876 elapsed seconds
Timing for main: time 2016-02-05_17:50:40 on domain   2:    1.63305 elapsed seconds
Timing for main: time 2016-02-05_17:50:53 on domain   3:     .17314 elapsed seconds
Timing for main: time 2016-02-05_17:51:06 on domain   3:     .16341 elapsed seconds
Timing for main: time 2016-02-05_17:51:20 on domain   3:     .16336 elapsed seconds
Timing for main: time 2016-02-05_17:51:00 on domain   4:     .20104 elapsed seconds
Timing for main: time 2016-02-05_17:51:20 on domain   4:     .19640 elapsed seconds
Timing for main: time 2016-02-05_17:51:20 on domain   2:    1.60032 elapsed seconds
Timing for main: time 2016-02-05_17:51:33 on domain   3:     .17354 elapsed seconds
Timing for main: time 2016-02-05_17:51:46 on domain   3:     .16248 elapsed seconds
Timing for main: time 2016-02-05_17:52:00 on domain   3:     .16964 elapsed seconds
Timing for main: time 2016-02-05_17:51:40 on domain   4:     .20208 elapsed seconds
Timing for main: time 2016-02-05_17:52:00 on domain   4:     .21184 elapsed seconds
Timing for main: time 2016-02-05_17:52:00 on domain   2:    1.63413 elapsed seconds
Timing for main: time 2016-02-05_17:52:00 on domain   1:    5.19928 elapsed seconds
Timing for main: time 2016-02-05_17:52:13 on domain   3:     .17329 elapsed seconds
Timing for main: time 2016-02-05_17:52:26 on domain   3:     .16274 elapsed seconds
Timing for main: time 2016-02-05_17:52:40 on domain   3:     .17145 elapsed seconds
Timing for main: time 2016-02-05_17:52:20 on domain   4:     .20124 elapsed seconds
Timing for main: time 2016-02-05_17:52:40 on domain   4:     .19837 elapsed seconds
Timing for main: time 2016-02-05_17:52:40 on domain   2:    1.62715 elapsed seconds
Timing for main: time 2016-02-05_17:52:53 on domain   3:     .17346 elapsed seconds
Timing for main: time 2016-02-05_17:53:06 on domain   3:     .16269 elapsed seconds
Timing for main: time 2016-02-05_17:53:20 on domain   3:     .16348 elapsed seconds
Timing for main: time 2016-02-05_17:53:00 on domain   4:     .20127 elapsed seconds
Timing for main: time 2016-02-05_17:53:20 on domain   4:     .19621 elapsed seconds
Timing for main: time 2016-02-05_17:53:20 on domain   2:    1.60203 elapsed seconds
Timing for main: time 2016-02-05_17:53:33 on domain   3:     .17344 elapsed seconds
Timing for main: time 2016-02-05_17:53:46 on domain   3:     .16351 elapsed seconds
Timing for main: time 2016-02-05_17:54:00 on domain   3:     .16543 elapsed seconds
Timing for main: time 2016-02-05_17:53:40 on domain   4:     .20163 elapsed seconds
Timing for main: time 2016-02-05_17:54:00 on domain   4:     .19691 elapsed seconds
Timing for main: time 2016-02-05_17:54:00 on domain   2:    1.60483 elapsed seconds
Timing for main: time 2016-02-05_17:54:00 on domain   1:    5.17239 elapsed seconds
Timing for main: time 2016-02-05_17:54:13 on domain   3:     .17376 elapsed seconds
Timing for main: time 2016-02-05_17:54:26 on domain   3:     .16337 elapsed seconds
Timing for main: time 2016-02-05_17:54:40 on domain   3:     .16323 elapsed seconds
Timing for main: time 2016-02-05_17:54:20 on domain   4:     .20175 elapsed seconds
Timing for main: time 2016-02-05_17:54:40 on domain   4:     .19670 elapsed seconds
Timing for main: time 2016-02-05_17:54:40 on domain   2:    1.61737 elapsed seconds
Timing for main: time 2016-02-05_17:54:53 on domain   3:     .17692 elapsed seconds
Timing for main: time 2016-02-05_17:55:06 on domain   3:     .16194 elapsed seconds
Timing for main: time 2016-02-05_17:55:20 on domain   3:     .16351 elapsed seconds
Timing for main: time 2016-02-05_17:55:00 on domain   4:     .20938 elapsed seconds
Timing for main: time 2016-02-05_17:55:20 on domain   4:     .19775 elapsed seconds
Timing for main: time 2016-02-05_17:55:20 on domain   2:    1.61125 elapsed seconds
Timing for main: time 2016-02-05_17:55:33 on domain   3:     .17309 elapsed seconds
Timing for main: time 2016-02-05_17:55:46 on domain   3:     .16429 elapsed seconds
Timing for main: time 2016-02-05_17:56:00 on domain   3:     .16321 elapsed seconds
Timing for main: time 2016-02-05_17:55:40 on domain   4:     .20069 elapsed seconds
Timing for main: time 2016-02-05_17:56:00 on domain   4:     .19944 elapsed seconds
Timing for main: time 2016-02-05_17:56:00 on domain   2:    1.60383 elapsed seconds
Timing for main: time 2016-02-05_17:56:00 on domain   1:    5.16386 elapsed seconds
Timing for main: time 2016-02-05_17:56:13 on domain   3:     .17342 elapsed seconds
Timing for main: time 2016-02-05_17:56:26 on domain   3:     .16357 elapsed seconds
Timing for main: time 2016-02-05_17:56:40 on domain   3:     .16376 elapsed seconds
Timing for main: time 2016-02-05_17:56:20 on domain   4:     .20111 elapsed seconds
Timing for main: time 2016-02-05_17:56:40 on domain   4:     .19736 elapsed seconds
Timing for main: time 2016-02-05_17:56:40 on domain   2:    1.61609 elapsed seconds
Timing for main: time 2016-02-05_17:56:53 on domain   3:     .17334 elapsed seconds
Timing for main: time 2016-02-05_17:57:06 on domain   3:     .16278 elapsed seconds
Timing for main: time 2016-02-05_17:57:20 on domain   3:     .16625 elapsed seconds
Timing for main: time 2016-02-05_17:57:00 on domain   4:     .20163 elapsed seconds
Timing for main: time 2016-02-05_17:57:20 on domain   4:     .19646 elapsed seconds
Timing for main: time 2016-02-05_17:57:20 on domain   2:    1.61305 elapsed seconds
Timing for main: time 2016-02-05_17:57:33 on domain   3:     .17337 elapsed seconds
Timing for main: time 2016-02-05_17:57:46 on domain   3:     .17129 elapsed seconds
Timing for main: time 2016-02-05_17:58:00 on domain   3:     .16336 elapsed seconds
Timing for main: time 2016-02-05_17:57:40 on domain   4:     .20159 elapsed seconds
Timing for main: time 2016-02-05_17:58:00 on domain   4:     .20026 elapsed seconds
Timing for main: time 2016-02-05_17:58:00 on domain   2:    1.61547 elapsed seconds
Timing for main: time 2016-02-05_17:58:00 on domain   1:    5.17747 elapsed seconds
  photolysis_driver: called for domain  1
Timing for main: time 2016-02-05_17:58:13 on domain   3:     .17388 elapsed seconds
Timing for main: time 2016-02-05_17:58:26 on domain   3:     .16303 elapsed seconds
Timing for main: time 2016-02-05_17:58:40 on domain   3:     .16279 elapsed seconds
Timing for main: time 2016-02-05_17:58:20 on domain   4:     .20098 elapsed seconds
Timing for main: time 2016-02-05_17:58:40 on domain   4:     .19793 elapsed seconds
Timing for main: time 2016-02-05_17:58:40 on domain   2:    1.61522 elapsed seconds
Timing for main: time 2016-02-05_17:58:53 on domain   3:     .17304 elapsed seconds
Timing for main: time 2016-02-05_17:59:06 on domain   3:     .16206 elapsed seconds
Timing for main: time 2016-02-05_17:59:20 on domain   3:     .16298 elapsed seconds
Timing for main: time 2016-02-05_17:59:00 on domain   4:     .20070 elapsed seconds
Timing for main: time 2016-02-05_17:59:20 on domain   4:     .18909 elapsed seconds
Timing for main: time 2016-02-05_17:59:20 on domain   2:    1.60363 elapsed seconds
  photolysis_driver: called for domain  2
Timing for main: time 2016-02-05_17:59:33 on domain   3:     .17327 elapsed seconds
Timing for main: time 2016-02-05_17:59:46 on domain   3:     .16233 elapsed seconds
  photolysis_driver: called for domain  3
Timing for main: time 2016-02-05_18:00:00 on domain   3:     .94463 elapsed seconds
Timing for Writing wrfout_d03_2016-02-05_18:00:00 for domain        3:    1.94786 elapsed seconds
Timing for main: time 2016-02-05_17:59:40 on domain   4:     .21648 elapsed seconds
  photolysis_driver: called for domain  4
Timing for main: time 2016-02-05_18:00:00 on domain   4:    1.06609 elapsed seconds
Timing for Writing wrfout_d04_2016-02-05_18:00:00 for domain        4:    2.12803 elapsed seconds
Timing for main: time 2016-02-05_18:00:00 on domain   2:    8.42091 elapsed seconds
Timing for Writing wrfout_d02_2016-02-05_18:00:00 for domain        2:    3.50666 elapsed seconds
Timing for main: time 2016-02-05_18:00:00 on domain   1:   15.99383 elapsed seconds
Timing for Writing wrfout_d01_2016-02-05_18:00:00 for domain        1:    2.36392 elapsed seconds
 d01 2016-02-05_18:00:00 wrf: SUCCESS COMPLETE WRF
