taskid: 0 hostname: p10a51.pbm.ihost.com
  Ntasks in X  10 , ntasks in Y  20
 Setting blank km_opt entries to domain #1 values.
  --> The km_opt entry in the namelist.input is now max_domains.
 Setting blank diff_opt entries to domain #1 values.
  --> The diff_opt entry in the namelist.input is now max_domains.
 --- WARNING: traj_opt is zero, but num_traj is not zero; setting num_traj to zero.
 --- NOTE: hypsometric_opt is 2, setting adjust_heights = F
 --- NOTE: sst_update is 0, setting io_form_auxinput4 = 0 and auxinput4_interval = 0 for all domains
 --- NOTE: sst_update is 0, setting io_form_auxinput4 = 0 and auxinput4_interval = 0 for all domains
 --- NOTE: sst_update is 0, setting io_form_auxinput4 = 0 and auxinput4_interval = 0 for all domains
 --- NOTE: sst_update is 0, setting io_form_auxinput4 = 0 and auxinput4_interval = 0 for all domains
 --- NOTE: grid_fdda is 0 for domain      1, setting gfdda interval and ending time to 0 for that domain.
 --- NOTE: both grid_sfdda and pxlsm_soil_nudge are 0 for domain      1, setting sgfdda interval and ending time to 0 for that domain.
 --- NOTE: obs_nudge_opt is 0 for domain      1, setting obs nudging interval and ending time to 0 for that domain.
 --- NOTE: grid_fdda is 0 for domain      2, setting gfdda interval and ending time to 0 for that domain.
 --- NOTE: both grid_sfdda and pxlsm_soil_nudge are 0 for domain      2, setting sgfdda interval and ending time to 0 for that domain.
 --- NOTE: obs_nudge_opt is 0 for domain      2, setting obs nudging interval and ending time to 0 for that domain.
 --- NOTE: grid_fdda is 0 for domain      3, setting gfdda interval and ending time to 0 for that domain.
 --- NOTE: both grid_sfdda and pxlsm_soil_nudge are 0 for domain      3, setting sgfdda interval and ending time to 0 for that domain.
 --- NOTE: obs_nudge_opt is 0 for domain      3, setting obs nudging interval and ending time to 0 for that domain.
 --- NOTE: grid_fdda is 0 for domain      4, setting gfdda interval and ending time to 0 for that domain.
 --- NOTE: both grid_sfdda and pxlsm_soil_nudge are 0 for domain      4, setting sgfdda interval and ending time to 0 for that domain.
 --- NOTE: obs_nudge_opt is 0 for domain      4, setting obs nudging interval and ending time to 0 for that domain.
 bl_pbl_physics /= 4, implies mfshconv must be 0, resetting
 --- NOTE: num_soil_layers has been set to      4
 WRF V3.6 MODEL
  *************************************
  Parent domain
  ids,ide,jds,jde  1 271 1 181
  ims,ime,jms,jme  -4 34 -4 16
  ips,ipe,jps,jpe  1 27 1 9
  *************************************
 DYNAMICS OPTION: Eulerian Mass Coordinate
    alloc_space_field: domain  1 ,  84056312  bytes allocated
   med_initialdata_input: calling input_input
Timing for processing wrfinput file (stream 0) for domain        1:    4.93108 elapsed seconds
 INPUT LandUse = "USGS"
  LANDUSE TYPE = "USGS" FOUND 33  CATEGORIES 2  SEASONS WATER CATEGORY =  16  SNOW CATEGORY =  24
 INITIALIZE THREE Noah LSM RELATED TABLES
  LANDUSE TYPE = USGS FOUND 27  CATEGORIES
  INPUT SOIL TEXTURE CLASSIFICATION = STAS
  SOIL TEXTURE CLASSIFICATION = STAS FOUND 19  CATEGORIES
 *********************************************************************
 *             PROGRAM:WRF/CHEM V3.6 MODEL
 *                                                                   *
 *    PLEASE REPORT ANY BUGS TO WRF/CHEM HELP at                     *
 *                                                                   *
 *              wrfchemhelp.gsd@noaa.gov                             *
 *                                                                   *
 *********************************************************************
 WARNING: dust option 1 currently works only with the GOCART aerosol option.
 WARNING: sea salt option 1 currently works only with the GOCART aerosol option.
  *************************************
  Nesting domain
  ids,ide,jds,jde  1 361 1 253
  ims,ime,jms,jme  -4 48 -4 24
  ips,ipe,jps,jpe  1 36 1 13
  INTERMEDIATE domain
  ids,ide,jds,jde  74 199 47 136
  ims,ime,jms,jme  69 97 42 62
  ips,ipe,jps,jpe  72 87 45 52
  *************************************
 d01 2016-02-05_12:00:00  alloc_space_field: domain  2 ,  153144872  bytes allocated
 d01 2016-02-05_12:00:00 *** Initializing nest domain # 2 from an input file. ***
 d01 2016-02-05_12:00:00 med_initialdata_input: calling input_input
Timing for processing wrfinput file (stream 0) for domain        2:    9.14871 elapsed seconds
 INPUT LandUse = "USGS"
  LANDUSE TYPE = "USGS" FOUND 33  CATEGORIES 2  SEASONS WATER CATEGORY =  16  SNOW CATEGORY =  24
 INITIALIZE THREE Noah LSM RELATED TABLES
  LANDUSE TYPE = USGS FOUND 27  CATEGORIES
  INPUT SOIL TEXTURE CLASSIFICATION = STAS
  SOIL TEXTURE CLASSIFICATION = STAS FOUND 19  CATEGORIES
 *********************************************************************
 *             PROGRAM:WRF/CHEM V3.6 MODEL
 *                                                                   *
 *    PLEASE REPORT ANY BUGS TO WRF/CHEM HELP at                     *
 *                                                                   *
 *              wrfchemhelp.gsd@noaa.gov                             *
 *                                                                   *
 *********************************************************************
 WARNING: dust option 1 currently works only with the GOCART aerosol option.
 WARNING: sea salt option 1 currently works only with the GOCART aerosol option.
 INPUT LandUse = "USGS"
  LANDUSE TYPE = "USGS" FOUND 33  CATEGORIES 2  SEASONS WATER CATEGORY =  16  SNOW CATEGORY =  24
 INITIALIZE THREE Noah LSM RELATED TABLES
  LANDUSE TYPE = USGS FOUND 27  CATEGORIES
  INPUT SOIL TEXTURE CLASSIFICATION = STAS
  SOIL TEXTURE CLASSIFICATION = STAS FOUND 19  CATEGORIES
 *********************************************************************
 *             PROGRAM:WRF/CHEM V3.6 MODEL
 *                                                                   *
 *    PLEASE REPORT ANY BUGS TO WRF/CHEM HELP at                     *
 *                                                                   *
 *              wrfchemhelp.gsd@noaa.gov                             *
 *                                                                   *
 *********************************************************************
 WARNING: dust option 1 currently works only with the GOCART aerosol option.
 WARNING: sea salt option 1 currently works only with the GOCART aerosol option.
 INPUT LandUse = "USGS"
  LANDUSE TYPE = "USGS" FOUND 33  CATEGORIES 2  SEASONS WATER CATEGORY =  16  SNOW CATEGORY =  24
 INITIALIZE THREE Noah LSM RELATED TABLES
  LANDUSE TYPE = USGS FOUND 27  CATEGORIES
  INPUT SOIL TEXTURE CLASSIFICATION = STAS
  SOIL TEXTURE CLASSIFICATION = STAS FOUND 19  CATEGORIES
 *********************************************************************
 *             PROGRAM:WRF/CHEM V3.6 MODEL
 *                                                                   *
 *    PLEASE REPORT ANY BUGS TO WRF/CHEM HELP at                     *
 *                                                                   *
 *              wrfchemhelp.gsd@noaa.gov                             *
 *                                                                   *
 *********************************************************************
 WARNING: dust option 1 currently works only with the GOCART aerosol option.
 WARNING: sea salt option 1 currently works only with the GOCART aerosol option.
Timing for Writing wrfout_d01_2016-02-05_12:00:00 for domain        1:    2.00811 elapsed seconds
  mediation_integrate: med_read_wrf_chem_emissions: Open file wrfchemi_12z_d01
  HOURLY EMISSIONS UPDATE TIME         .0        .0
 mediation_integrate: med_read_wrf_chem_emissions: Read emissions for time 2016-02-05_12:00:00
 **WARNING** Time in input file not being checked **WARNING**
Timing for processing lateral boundary for domain        1:    3.98905 elapsed seconds
  Tile Strategy is not specified. Assuming 1D-Y
 WRF TILE   1 IS      1 IE     27 JS      1 JE      9
 WRF NUMBER OF TILES =   1
  photolysis_driver: called for domain  1
  *************************************
  Nesting domain
  ids,ide,jds,jde  1 307 1 241
  ims,ime,jms,jme  -4 42 -4 24
  ips,ipe,jps,jpe  1 31 1 12
  INTERMEDIATE domain
  ids,ide,jds,jde  124 231 35 120
  ims,ime,jms,jme  119 145 30 50
  ips,ipe,jps,jpe  122 135 33 40
  *************************************
 d02 2016-02-05_12:00:00  alloc_space_field: domain  3 ,  136269116  bytes allocated
 d02 2016-02-05_12:00:00  alloc_space_field: domain  3 ,  7141932  bytes allocated
 d02 2016-02-05_12:00:00 *** Initializing nest domain # 3 from an input file. ***
 d02 2016-02-05_12:00:00 med_initialdata_input: calling input_input
Timing for processing wrfinput file (stream 0) for domain        3:    6.24038 elapsed seconds
 INPUT LandUse = "USGS"
  LANDUSE TYPE = "USGS" FOUND 33  CATEGORIES 2  SEASONS WATER CATEGORY =  16  SNOW CATEGORY =  24
 INITIALIZE THREE Noah LSM RELATED TABLES
  LANDUSE TYPE = USGS FOUND 27  CATEGORIES
  INPUT SOIL TEXTURE CLASSIFICATION = STAS
  SOIL TEXTURE CLASSIFICATION = STAS FOUND 19  CATEGORIES
 *********************************************************************
 *             PROGRAM:WRF/CHEM V3.6 MODEL
 *                                                                   *
 *    PLEASE REPORT ANY BUGS TO WRF/CHEM HELP at                     *
 *                                                                   *
 *              wrfchemhelp.gsd@noaa.gov                             *
 *                                                                   *
 *********************************************************************
 WARNING: dust option 1 currently works only with the GOCART aerosol option.
 WARNING: sea salt option 1 currently works only with the GOCART aerosol option.
 INPUT LandUse = "USGS"
  LANDUSE TYPE = "USGS" FOUND 33  CATEGORIES 2  SEASONS WATER CATEGORY =  16  SNOW CATEGORY =  24
 INITIALIZE THREE Noah LSM RELATED TABLES
  LANDUSE TYPE = USGS FOUND 27  CATEGORIES
  INPUT SOIL TEXTURE CLASSIFICATION = STAS
  SOIL TEXTURE CLASSIFICATION = STAS FOUND 19  CATEGORIES
 *********************************************************************
 *             PROGRAM:WRF/CHEM V3.6 MODEL
 *                                                                   *
 *    PLEASE REPORT ANY BUGS TO WRF/CHEM HELP at                     *
 *                                                                   *
 *              wrfchemhelp.gsd@noaa.gov                             *
 *                                                                   *
 *********************************************************************
 WARNING: dust option 1 currently works only with the GOCART aerosol option.
 WARNING: sea salt option 1 currently works only with the GOCART aerosol option.
 INPUT LandUse = "USGS"
  LANDUSE TYPE = "USGS" FOUND 33  CATEGORIES 2  SEASONS WATER CATEGORY =  16  SNOW CATEGORY =  24
 INITIALIZE THREE Noah LSM RELATED TABLES
  LANDUSE TYPE = USGS FOUND 27  CATEGORIES
  INPUT SOIL TEXTURE CLASSIFICATION = STAS
  SOIL TEXTURE CLASSIFICATION = STAS FOUND 19  CATEGORIES
 *********************************************************************
 *             PROGRAM:WRF/CHEM V3.6 MODEL
 *                                                                   *
 *    PLEASE REPORT ANY BUGS TO WRF/CHEM HELP at                     *
 *                                                                   *
 *              wrfchemhelp.gsd@noaa.gov                             *
 *                                                                   *
 *********************************************************************
 WARNING: dust option 1 currently works only with the GOCART aerosol option.
 WARNING: sea salt option 1 currently works only with the GOCART aerosol option.
  *************************************
  Nesting domain
  ids,ide,jds,jde  1 217 1 388
  ims,ime,jms,jme  -4 33 -4 30
  ips,ipe,jps,jpe  1 22 1 20
  INTERMEDIATE domain
  ids,ide,jds,jde  225 302 83 217
  ims,ime,jms,jme  220 243 78 101
  ips,ipe,jps,jpe  223 233 81 91
  *************************************
 d02 2016-02-05_12:00:00  alloc_space_field: domain  4 ,  132919064  bytes allocated
 d02 2016-02-05_12:00:00  alloc_space_field: domain  4 ,  7255296  bytes allocated
 d02 2016-02-05_12:00:00 *** Initializing nest domain # 4 from an input file. ***
 d02 2016-02-05_12:00:00 med_initialdata_input: calling input_input
Timing for processing wrfinput file (stream 0) for domain        4:    8.71795 elapsed seconds
 INPUT LandUse = "USGS"
  LANDUSE TYPE = "USGS" FOUND 33  CATEGORIES 2  SEASONS WATER CATEGORY =  16  SNOW CATEGORY =  24
 INITIALIZE THREE Noah LSM RELATED TABLES
  LANDUSE TYPE = USGS FOUND 27  CATEGORIES
  INPUT SOIL TEXTURE CLASSIFICATION = STAS
  SOIL TEXTURE CLASSIFICATION = STAS FOUND 19  CATEGORIES
 *********************************************************************
 *             PROGRAM:WRF/CHEM V3.6 MODEL
 *                                                                   *
 *    PLEASE REPORT ANY BUGS TO WRF/CHEM HELP at                     *
 *                                                                   *
 *              wrfchemhelp.gsd@noaa.gov                             *
 *                                                                   *
 *********************************************************************
 WARNING: dust option 1 currently works only with the GOCART aerosol option.
 WARNING: sea salt option 1 currently works only with the GOCART aerosol option.
 INPUT LandUse = "USGS"
  LANDUSE TYPE = "USGS" FOUND 33  CATEGORIES 2  SEASONS WATER CATEGORY =  16  SNOW CATEGORY =  24
 INITIALIZE THREE Noah LSM RELATED TABLES
  LANDUSE TYPE = USGS FOUND 27  CATEGORIES
  INPUT SOIL TEXTURE CLASSIFICATION = STAS
  SOIL TEXTURE CLASSIFICATION = STAS FOUND 19  CATEGORIES
 *********************************************************************
 *             PROGRAM:WRF/CHEM V3.6 MODEL
 *                                                                   *
 *    PLEASE REPORT ANY BUGS TO WRF/CHEM HELP at                     *
 *                                                                   *
 *              wrfchemhelp.gsd@noaa.gov                             *
 *                                                                   *
 *********************************************************************
 WARNING: dust option 1 currently works only with the GOCART aerosol option.
 WARNING: sea salt option 1 currently works only with the GOCART aerosol option.
 INPUT LandUse = "USGS"
  LANDUSE TYPE = "USGS" FOUND 33  CATEGORIES 2  SEASONS WATER CATEGORY =  16  SNOW CATEGORY =  24
 INITIALIZE THREE Noah LSM RELATED TABLES
  LANDUSE TYPE = USGS FOUND 27  CATEGORIES
  INPUT SOIL TEXTURE CLASSIFICATION = STAS
  SOIL TEXTURE CLASSIFICATION = STAS FOUND 19  CATEGORIES
 *********************************************************************
 *             PROGRAM:WRF/CHEM V3.6 MODEL
 *                                                                   *
 *    PLEASE REPORT ANY BUGS TO WRF/CHEM HELP at                     *
 *                                                                   *
 *              wrfchemhelp.gsd@noaa.gov                             *
 *                                                                   *
 *********************************************************************
 WARNING: dust option 1 currently works only with the GOCART aerosol option.
 WARNING: sea salt option 1 currently works only with the GOCART aerosol option.
Timing for Writing wrfout_d02_2016-02-05_12:00:00 for domain        2:    3.34164 elapsed seconds
  mediation_integrate: med_read_wrf_chem_emissions: Open file wrfchemi_12z_d02
  HOURLY EMISSIONS UPDATE TIME         .0        .0
 mediation_integrate: med_read_wrf_chem_emissions: Read emissions for time 2016-02-05_12:00:00
 **WARNING** Time in input file not being checked **WARNING**
  Tile Strategy is not specified. Assuming 1D-Y
 WRF TILE   1 IS      1 IE     36 JS      1 JE     13
 WRF NUMBER OF TILES =   1
  photolysis_driver: called for domain  2
Timing for Writing wrfout_d03_2016-02-05_12:00:00 for domain        3:    2.46442 elapsed seconds
  mediation_integrate: med_read_wrf_chem_emissions: Open file wrfchemi_12z_d03
  HOURLY EMISSIONS UPDATE TIME         .0        .0
 mediation_integrate: med_read_wrf_chem_emissions: Read emissions for time 2016-02-05_12:00:00
 **WARNING** Time in input file not being checked **WARNING**
  Tile Strategy is not specified. Assuming 1D-Y
 WRF TILE   1 IS      1 IE     31 JS      1 JE     12
 WRF NUMBER OF TILES =   1
  photolysis_driver: called for domain  3
Timing for main: time 2016-02-05_12:00:13 on domain   3:    5.56593 elapsed seconds
Timing for main: time 2016-02-05_12:00:26 on domain   3:     .37350 elapsed seconds
Timing for main: time 2016-02-05_12:00:40 on domain   3:     .24917 elapsed seconds
Timing for Writing wrfout_d04_2016-02-05_12:00:00 for domain        4:    2.84829 elapsed seconds
  mediation_integrate: med_read_wrf_chem_emissions: Open file wrfchemi_12z_d04
  HOURLY EMISSIONS UPDATE TIME         .0        .0
 mediation_integrate: med_read_wrf_chem_emissions: Read emissions for time 2016-02-05_12:00:00
 **WARNING** Time in input file not being checked **WARNING**
  Tile Strategy is not specified. Assuming 1D-Y
 WRF TILE   1 IS      1 IE     22 JS      1 JE     20
 WRF NUMBER OF TILES =   1
  photolysis_driver: called for domain  4
Timing for main: time 2016-02-05_12:00:20 on domain   4:    6.33465 elapsed seconds
Timing for main: time 2016-02-05_12:00:40 on domain   4:     .26441 elapsed seconds
Timing for main: time 2016-02-05_12:00:40 on domain   2:   38.45796 elapsed seconds
Timing for main: time 2016-02-05_12:00:53 on domain   3:     .25258 elapsed seconds
Timing for main: time 2016-02-05_12:01:06 on domain   3:     .23984 elapsed seconds
Timing for main: time 2016-02-05_12:01:20 on domain   3:     .24105 elapsed seconds
Timing for main: time 2016-02-05_12:01:00 on domain   4:     .28743 elapsed seconds
Timing for main: time 2016-02-05_12:01:20 on domain   4:     .28017 elapsed seconds
Timing for main: time 2016-02-05_12:01:20 on domain   2:    2.12697 elapsed seconds
Timing for main: time 2016-02-05_12:01:33 on domain   3:     .25234 elapsed seconds
Timing for main: time 2016-02-05_12:01:46 on domain   3:     .24119 elapsed seconds
Timing for main: time 2016-02-05_12:02:00 on domain   3:     .24174 elapsed seconds
Timing for main: time 2016-02-05_12:01:40 on domain   4:     .29386 elapsed seconds
Timing for main: time 2016-02-05_12:02:00 on domain   4:     .28059 elapsed seconds
Timing for main: time 2016-02-05_12:02:00 on domain   2:    2.17726 elapsed seconds
Timing for main: time 2016-02-05_12:02:00 on domain   1:   64.06918 elapsed seconds
Timing for main: time 2016-02-05_12:02:13 on domain   3:     .25480 elapsed seconds
Timing for main: time 2016-02-05_12:02:26 on domain   3:     .24160 elapsed seconds
Timing for main: time 2016-02-05_12:02:40 on domain   3:     .24164 elapsed seconds
Timing for main: time 2016-02-05_12:02:20 on domain   4:     .29324 elapsed seconds
Timing for main: time 2016-02-05_12:02:40 on domain   4:     .28034 elapsed seconds
Timing for main: time 2016-02-05_12:02:40 on domain   2:    2.22214 elapsed seconds
Timing for main: time 2016-02-05_12:02:53 on domain   3:     .25471 elapsed seconds
Timing for main: time 2016-02-05_12:03:06 on domain   3:     .24088 elapsed seconds
Timing for main: time 2016-02-05_12:03:20 on domain   3:     .23900 elapsed seconds
Timing for main: time 2016-02-05_12:03:00 on domain   4:     .33696 elapsed seconds
Timing for main: time 2016-02-05_12:03:20 on domain   4:     .33336 elapsed seconds
Timing for main: time 2016-02-05_12:03:20 on domain   2:    2.26760 elapsed seconds
Timing for main: time 2016-02-05_12:03:33 on domain   3:     .26106 elapsed seconds
Timing for main: time 2016-02-05_12:03:46 on domain   3:     .24227 elapsed seconds
Timing for main: time 2016-02-05_12:04:00 on domain   3:     .24182 elapsed seconds
Timing for main: time 2016-02-05_12:03:40 on domain   4:     .29418 elapsed seconds
Timing for main: time 2016-02-05_12:04:00 on domain   4:     .28363 elapsed seconds
Timing for main: time 2016-02-05_12:04:00 on domain   2:    2.18571 elapsed seconds
Timing for main: time 2016-02-05_12:04:00 on domain   1:    7.10424 elapsed seconds
Timing for main: time 2016-02-05_12:04:13 on domain   3:     .25594 elapsed seconds
Timing for main: time 2016-02-05_12:04:26 on domain   3:     .24109 elapsed seconds
Timing for main: time 2016-02-05_12:04:40 on domain   3:     .24058 elapsed seconds
Timing for main: time 2016-02-05_12:04:20 on domain   4:     .29592 elapsed seconds
Timing for main: time 2016-02-05_12:04:40 on domain   4:     .27997 elapsed seconds
Timing for main: time 2016-02-05_12:04:40 on domain   2:    2.18864 elapsed seconds
Timing for main: time 2016-02-05_12:04:53 on domain   3:     .25497 elapsed seconds
Timing for main: time 2016-02-05_12:05:06 on domain   3:     .25028 elapsed seconds
Timing for main: time 2016-02-05_12:05:20 on domain   3:     .24005 elapsed seconds
Timing for main: time 2016-02-05_12:05:00 on domain   4:     .30563 elapsed seconds
Timing for main: time 2016-02-05_12:05:20 on domain   4:     .28069 elapsed seconds
Timing for main: time 2016-02-05_12:05:20 on domain   2:    2.20813 elapsed seconds
Timing for main: time 2016-02-05_12:05:33 on domain   3:     .25600 elapsed seconds
Timing for main: time 2016-02-05_12:05:46 on domain   3:     .24014 elapsed seconds
Timing for main: time 2016-02-05_12:06:00 on domain   3:     .24074 elapsed seconds
Timing for main: time 2016-02-05_12:05:40 on domain   4:     .29465 elapsed seconds
Timing for main: time 2016-02-05_12:06:00 on domain   4:     .28065 elapsed seconds
Timing for main: time 2016-02-05_12:06:00 on domain   2:    2.17681 elapsed seconds
Timing for main: time 2016-02-05_12:06:00 on domain   1:    7.03195 elapsed seconds
Timing for main: time 2016-02-05_12:06:13 on domain   3:     .25571 elapsed seconds
Timing for main: time 2016-02-05_12:06:26 on domain   3:     .24160 elapsed seconds
Timing for main: time 2016-02-05_12:06:40 on domain   3:     .24061 elapsed seconds
Timing for main: time 2016-02-05_12:06:20 on domain   4:     .29451 elapsed seconds
Timing for main: time 2016-02-05_12:06:40 on domain   4:     .28123 elapsed seconds
Timing for main: time 2016-02-05_12:06:40 on domain   2:    2.18846 elapsed seconds
Timing for main: time 2016-02-05_12:06:53 on domain   3:     .25602 elapsed seconds
Timing for main: time 2016-02-05_12:07:06 on domain   3:     .24083 elapsed seconds
Timing for main: time 2016-02-05_12:07:20 on domain   3:     .24609 elapsed seconds
Timing for main: time 2016-02-05_12:07:00 on domain   4:     .29465 elapsed seconds
Timing for main: time 2016-02-05_12:07:20 on domain   4:     .28103 elapsed seconds
Timing for main: time 2016-02-05_12:07:20 on domain   2:    2.18543 elapsed seconds
Timing for main: time 2016-02-05_12:07:33 on domain   3:     .25628 elapsed seconds
Timing for main: time 2016-02-05_12:07:46 on domain   3:     .24010 elapsed seconds
Timing for main: time 2016-02-05_12:08:00 on domain   3:     .24186 elapsed seconds
Timing for main: time 2016-02-05_12:07:40 on domain   4:     .29500 elapsed seconds
Timing for main: time 2016-02-05_12:08:00 on domain   4:     .28153 elapsed seconds
Timing for main: time 2016-02-05_12:08:00 on domain   2:    2.17772 elapsed seconds
Timing for main: time 2016-02-05_12:08:00 on domain   1:    7.00464 elapsed seconds
Timing for main: time 2016-02-05_12:08:13 on domain   3:     .25544 elapsed seconds
Timing for main: time 2016-02-05_12:08:26 on domain   3:     .24067 elapsed seconds
Timing for main: time 2016-02-05_12:08:40 on domain   3:     .24062 elapsed seconds
Timing for main: time 2016-02-05_12:08:20 on domain   4:     .29459 elapsed seconds
Timing for main: time 2016-02-05_12:08:40 on domain   4:     .28170 elapsed seconds
Timing for main: time 2016-02-05_12:08:40 on domain   2:    2.18741 elapsed seconds
Timing for main: time 2016-02-05_12:08:53 on domain   3:     .26124 elapsed seconds
Timing for main: time 2016-02-05_12:09:06 on domain   3:     .26228 elapsed seconds
Timing for main: time 2016-02-05_12:09:20 on domain   3:     .24094 elapsed seconds
Timing for main: time 2016-02-05_12:09:00 on domain   4:     .29512 elapsed seconds
Timing for main: time 2016-02-05_12:09:20 on domain   4:     .28142 elapsed seconds
Timing for main: time 2016-02-05_12:09:20 on domain   2:    2.20581 elapsed seconds
Timing for main: time 2016-02-05_12:09:33 on domain   3:     .25422 elapsed seconds
Timing for main: time 2016-02-05_12:09:46 on domain   3:     .24175 elapsed seconds
Timing for main: time 2016-02-05_12:10:00 on domain   3:     .23931 elapsed seconds
Timing for main: time 2016-02-05_12:09:40 on domain   4:     .29508 elapsed seconds
Timing for main: time 2016-02-05_12:10:00 on domain   4:     .29306 elapsed seconds
Timing for main: time 2016-02-05_12:10:00 on domain   2:    2.18709 elapsed seconds
Timing for main: time 2016-02-05_12:10:00 on domain   1:    7.03281 elapsed seconds
Timing for main: time 2016-02-05_12:10:13 on domain   3:     .26377 elapsed seconds
Timing for main: time 2016-02-05_12:10:26 on domain   3:     .24091 elapsed seconds
Timing for main: time 2016-02-05_12:10:40 on domain   3:     .24057 elapsed seconds
Timing for main: time 2016-02-05_12:10:20 on domain   4:     .29521 elapsed seconds
Timing for main: time 2016-02-05_12:10:40 on domain   4:     .30393 elapsed seconds
Timing for main: time 2016-02-05_12:10:40 on domain   2:    2.23108 elapsed seconds
Timing for main: time 2016-02-05_12:10:53 on domain   3:     .25417 elapsed seconds
Timing for main: time 2016-02-05_12:11:06 on domain   3:     .24121 elapsed seconds
Timing for main: time 2016-02-05_12:11:20 on domain   3:     .24079 elapsed seconds
Timing for main: time 2016-02-05_12:11:00 on domain   4:     .34084 elapsed seconds
Timing for main: time 2016-02-05_12:11:20 on domain   4:     .31564 elapsed seconds
Timing for main: time 2016-02-05_12:11:20 on domain   2:    2.25668 elapsed seconds
Timing for main: time 2016-02-05_12:11:33 on domain   3:     .25553 elapsed seconds
Timing for main: time 2016-02-05_12:11:46 on domain   3:     .24030 elapsed seconds
Timing for main: time 2016-02-05_12:12:00 on domain   3:     .24008 elapsed seconds
Timing for main: time 2016-02-05_12:11:40 on domain   4:     .29462 elapsed seconds
Timing for main: time 2016-02-05_12:12:00 on domain   4:     .28556 elapsed seconds
Timing for main: time 2016-02-05_12:12:00 on domain   2:    2.17944 elapsed seconds
Timing for main: time 2016-02-05_12:12:00 on domain   1:    7.12732 elapsed seconds
Timing for main: time 2016-02-05_12:12:13 on domain   3:     .25582 elapsed seconds
Timing for main: time 2016-02-05_12:12:26 on domain   3:     .24116 elapsed seconds
Timing for main: time 2016-02-05_12:12:40 on domain   3:     .23945 elapsed seconds
Timing for main: time 2016-02-05_12:12:20 on domain   4:     .29418 elapsed seconds
Timing for main: time 2016-02-05_12:12:40 on domain   4:     .28130 elapsed seconds
Timing for main: time 2016-02-05_12:12:40 on domain   2:    2.18996 elapsed seconds
Timing for main: time 2016-02-05_12:12:53 on domain   3:     .25402 elapsed seconds
Timing for main: time 2016-02-05_12:13:06 on domain   3:     .24081 elapsed seconds
Timing for main: time 2016-02-05_12:13:20 on domain   3:     .24104 elapsed seconds
Timing for main: time 2016-02-05_12:13:00 on domain   4:     .29351 elapsed seconds
Timing for main: time 2016-02-05_12:13:20 on domain   4:     .28209 elapsed seconds
Timing for main: time 2016-02-05_12:13:20 on domain   2:    2.18183 elapsed seconds
Timing for main: time 2016-02-05_12:13:33 on domain   3:     .25437 elapsed seconds
Timing for main: time 2016-02-05_12:13:46 on domain   3:     .23996 elapsed seconds
Timing for main: time 2016-02-05_12:14:00 on domain   3:     .24007 elapsed seconds
Timing for main: time 2016-02-05_12:13:40 on domain   4:     .29359 elapsed seconds
Timing for main: time 2016-02-05_12:14:00 on domain   4:     .28267 elapsed seconds
Timing for main: time 2016-02-05_12:14:00 on domain   2:    2.17757 elapsed seconds
Timing for main: time 2016-02-05_12:14:00 on domain   1:    7.00122 elapsed seconds
Timing for main: time 2016-02-05_12:14:13 on domain   3:     .25338 elapsed seconds
Timing for main: time 2016-02-05_12:14:26 on domain   3:     .24098 elapsed seconds
Timing for main: time 2016-02-05_12:14:40 on domain   3:     .24020 elapsed seconds
Timing for main: time 2016-02-05_12:14:20 on domain   4:     .29349 elapsed seconds
Timing for main: time 2016-02-05_12:14:40 on domain   4:     .28354 elapsed seconds
Timing for main: time 2016-02-05_12:14:40 on domain   2:    2.18805 elapsed seconds
Timing for main: time 2016-02-05_12:14:53 on domain   3:     .25553 elapsed seconds
Timing for main: time 2016-02-05_12:15:06 on domain   3:     .24031 elapsed seconds
Timing for main: time 2016-02-05_12:15:20 on domain   3:     .25041 elapsed seconds
Timing for main: time 2016-02-05_12:15:00 on domain   4:     .30558 elapsed seconds
Timing for main: time 2016-02-05_12:15:20 on domain   4:     .28213 elapsed seconds
Timing for main: time 2016-02-05_12:15:20 on domain   2:    2.19897 elapsed seconds
Timing for main: time 2016-02-05_12:15:33 on domain   3:     .25859 elapsed seconds
Timing for main: time 2016-02-05_12:15:46 on domain   3:     .24246 elapsed seconds
Timing for main: time 2016-02-05_12:16:00 on domain   3:     .24011 elapsed seconds
Timing for main: time 2016-02-05_12:15:40 on domain   4:     .29564 elapsed seconds
Timing for main: time 2016-02-05_12:16:00 on domain   4:     .28350 elapsed seconds
Timing for main: time 2016-02-05_12:16:00 on domain   2:    2.19731 elapsed seconds
Timing for main: time 2016-02-05_12:16:00 on domain   1:    7.03804 elapsed seconds
Timing for main: time 2016-02-05_12:16:13 on domain   3:     .26066 elapsed seconds
Timing for main: time 2016-02-05_12:16:26 on domain   3:     .24044 elapsed seconds
Timing for main: time 2016-02-05_12:16:40 on domain   3:     .24045 elapsed seconds
Timing for main: time 2016-02-05_12:16:20 on domain   4:     .29390 elapsed seconds
Timing for main: time 2016-02-05_12:16:40 on domain   4:     .28264 elapsed seconds
Timing for main: time 2016-02-05_12:16:40 on domain   2:    2.19268 elapsed seconds
Timing for main: time 2016-02-05_12:16:53 on domain   3:     .25586 elapsed seconds
Timing for main: time 2016-02-05_12:17:06 on domain   3:     .23994 elapsed seconds
Timing for main: time 2016-02-05_12:17:20 on domain   3:     .23975 elapsed seconds
Timing for main: time 2016-02-05_12:17:00 on domain   4:     .29429 elapsed seconds
Timing for main: time 2016-02-05_12:17:20 on domain   4:     .28253 elapsed seconds
Timing for main: time 2016-02-05_12:17:20 on domain   2:    2.17722 elapsed seconds
Timing for main: time 2016-02-05_12:17:33 on domain   3:     .25873 elapsed seconds
Timing for main: time 2016-02-05_12:17:46 on domain   3:     .24044 elapsed seconds
Timing for main: time 2016-02-05_12:18:00 on domain   3:     .23853 elapsed seconds
Timing for main: time 2016-02-05_12:17:40 on domain   4:     .29495 elapsed seconds
Timing for main: time 2016-02-05_12:18:00 on domain   4:     .28249 elapsed seconds
Timing for main: time 2016-02-05_12:18:00 on domain   2:    2.17996 elapsed seconds
Timing for main: time 2016-02-05_12:18:00 on domain   1:    7.01014 elapsed seconds
Timing for main: time 2016-02-05_12:18:13 on domain   3:     .25526 elapsed seconds
Timing for main: time 2016-02-05_12:18:26 on domain   3:     .23959 elapsed seconds
Timing for main: time 2016-02-05_12:18:40 on domain   3:     .24004 elapsed seconds
Timing for main: time 2016-02-05_12:18:20 on domain   4:     .29485 elapsed seconds
Timing for main: time 2016-02-05_12:18:40 on domain   4:     .28260 elapsed seconds
Timing for main: time 2016-02-05_12:18:40 on domain   2:    2.18905 elapsed seconds
Timing for main: time 2016-02-05_12:18:53 on domain   3:     .25667 elapsed seconds
Timing for main: time 2016-02-05_12:19:06 on domain   3:     .23970 elapsed seconds
Timing for main: time 2016-02-05_12:19:20 on domain   3:     .23918 elapsed seconds
Timing for main: time 2016-02-05_12:19:00 on domain   4:     .29542 elapsed seconds
Timing for main: time 2016-02-05_12:19:20 on domain   4:     .28212 elapsed seconds
Timing for main: time 2016-02-05_12:19:20 on domain   2:    2.26672 elapsed seconds
Timing for main: time 2016-02-05_12:19:33 on domain   3:     .25637 elapsed seconds
Timing for main: time 2016-02-05_12:19:46 on domain   3:     .24212 elapsed seconds
Timing for main: time 2016-02-05_12:20:00 on domain   3:     .23943 elapsed seconds
Timing for main: time 2016-02-05_12:19:40 on domain   4:     .29504 elapsed seconds
Timing for main: time 2016-02-05_12:20:00 on domain   4:     .29316 elapsed seconds
Timing for main: time 2016-02-05_12:20:00 on domain   2:    2.19061 elapsed seconds
Timing for main: time 2016-02-05_12:20:00 on domain   1:    7.10025 elapsed seconds
Timing for main: time 2016-02-05_12:20:13 on domain   3:     .25640 elapsed seconds
Timing for main: time 2016-02-05_12:20:26 on domain   3:     .24943 elapsed seconds
Timing for main: time 2016-02-05_12:20:40 on domain   3:     .24158 elapsed seconds
Timing for main: time 2016-02-05_12:20:20 on domain   4:     .29452 elapsed seconds
Timing for main: time 2016-02-05_12:20:40 on domain   4:     .28548 elapsed seconds
Timing for main: time 2016-02-05_12:20:40 on domain   2:    2.20001 elapsed seconds
Timing for main: time 2016-02-05_12:20:53 on domain   3:     .25612 elapsed seconds
Timing for main: time 2016-02-05_12:21:06 on domain   3:     .23950 elapsed seconds
Timing for main: time 2016-02-05_12:21:20 on domain   3:     .23941 elapsed seconds
Timing for main: time 2016-02-05_12:21:00 on domain   4:     .29508 elapsed seconds
Timing for main: time 2016-02-05_12:21:20 on domain   4:     .28292 elapsed seconds
Timing for main: time 2016-02-05_12:21:20 on domain   2:    2.19141 elapsed seconds
Timing for main: time 2016-02-05_12:21:33 on domain   3:     .25521 elapsed seconds
Timing for main: time 2016-02-05_12:21:46 on domain   3:     .24122 elapsed seconds
Timing for main: time 2016-02-05_12:22:00 on domain   3:     .24339 elapsed seconds
Timing for main: time 2016-02-05_12:21:40 on domain   4:     .29425 elapsed seconds
Timing for main: time 2016-02-05_12:22:00 on domain   4:     .28258 elapsed seconds
Timing for main: time 2016-02-05_12:22:00 on domain   2:    2.18183 elapsed seconds
Timing for main: time 2016-02-05_12:22:00 on domain   1:    7.02693 elapsed seconds
Timing for main: time 2016-02-05_12:22:13 on domain   3:     .25629 elapsed seconds
Timing for main: time 2016-02-05_12:22:26 on domain   3:     .23966 elapsed seconds
Timing for main: time 2016-02-05_12:22:40 on domain   3:     .24002 elapsed seconds
Timing for main: time 2016-02-05_12:22:20 on domain   4:     .29495 elapsed seconds
Timing for main: time 2016-02-05_12:22:40 on domain   4:     .28286 elapsed seconds
Timing for main: time 2016-02-05_12:22:40 on domain   2:    2.19118 elapsed seconds
Timing for main: time 2016-02-05_12:22:53 on domain   3:     .25568 elapsed seconds
Timing for main: time 2016-02-05_12:23:06 on domain   3:     .24020 elapsed seconds
Timing for main: time 2016-02-05_12:23:20 on domain   3:     .23965 elapsed seconds
Timing for main: time 2016-02-05_12:23:00 on domain   4:     .29533 elapsed seconds
Timing for main: time 2016-02-05_12:23:20 on domain   4:     .28284 elapsed seconds
Timing for main: time 2016-02-05_12:23:20 on domain   2:    2.17990 elapsed seconds
Timing for main: time 2016-02-05_12:23:33 on domain   3:     .25888 elapsed seconds
Timing for main: time 2016-02-05_12:23:46 on domain   3:     .23891 elapsed seconds
Timing for main: time 2016-02-05_12:24:00 on domain   3:     .24063 elapsed seconds
Timing for main: time 2016-02-05_12:23:40 on domain   4:     .29512 elapsed seconds
Timing for main: time 2016-02-05_12:24:00 on domain   4:     .28225 elapsed seconds
Timing for main: time 2016-02-05_12:24:00 on domain   2:    2.18069 elapsed seconds
Timing for main: time 2016-02-05_12:24:00 on domain   1:    7.01175 elapsed seconds
Timing for main: time 2016-02-05_12:24:13 on domain   3:     .25600 elapsed seconds
Timing for main: time 2016-02-05_12:24:26 on domain   3:     .23947 elapsed seconds
Timing for main: time 2016-02-05_12:24:40 on domain   3:     .24057 elapsed seconds
Timing for main: time 2016-02-05_12:24:20 on domain   4:     .34120 elapsed seconds
Timing for main: time 2016-02-05_12:24:40 on domain   4:     .34765 elapsed seconds
Timing for main: time 2016-02-05_12:24:40 on domain   2:    2.29797 elapsed seconds
Timing for main: time 2016-02-05_12:24:53 on domain   3:     .25510 elapsed seconds
Timing for main: time 2016-02-05_12:25:06 on domain   3:     .24046 elapsed seconds
Timing for main: time 2016-02-05_12:25:20 on domain   3:     .24128 elapsed seconds
Timing for main: time 2016-02-05_12:25:00 on domain   4:     .30532 elapsed seconds
Timing for main: time 2016-02-05_12:25:20 on domain   4:     .28286 elapsed seconds
Timing for main: time 2016-02-05_12:25:20 on domain   2:    2.19122 elapsed seconds
Timing for main: time 2016-02-05_12:25:33 on domain   3:     .26488 elapsed seconds
Timing for main: time 2016-02-05_12:25:46 on domain   3:     .24152 elapsed seconds
Timing for main: time 2016-02-05_12:26:00 on domain   3:     .23868 elapsed seconds
Timing for main: time 2016-02-05_12:25:40 on domain   4:     .29477 elapsed seconds
Timing for main: time 2016-02-05_12:26:00 on domain   4:     .28946 elapsed seconds
Timing for main: time 2016-02-05_12:26:00 on domain   2:    2.19460 elapsed seconds
Timing for main: time 2016-02-05_12:26:00 on domain   1:    7.13783 elapsed seconds
Timing for main: time 2016-02-05_12:26:13 on domain   3:     .25524 elapsed seconds
Timing for main: time 2016-02-05_12:26:26 on domain   3:     .24326 elapsed seconds
Timing for main: time 2016-02-05_12:26:40 on domain   3:     .24031 elapsed seconds
Timing for main: time 2016-02-05_12:26:20 on domain   4:     .29492 elapsed seconds
Timing for main: time 2016-02-05_12:26:40 on domain   4:     .28323 elapsed seconds
Timing for main: time 2016-02-05_12:26:40 on domain   2:    2.22194 elapsed seconds
Timing for main: time 2016-02-05_12:26:53 on domain   3:     .25519 elapsed seconds
Timing for main: time 2016-02-05_12:27:06 on domain   3:     .24063 elapsed seconds
Timing for main: time 2016-02-05_12:27:20 on domain   3:     .24039 elapsed seconds
Timing for main: time 2016-02-05_12:27:00 on domain   4:     .29555 elapsed seconds
Timing for main: time 2016-02-05_12:27:20 on domain   4:     .28170 elapsed seconds
Timing for main: time 2016-02-05_12:27:20 on domain   2:    2.18000 elapsed seconds
Timing for main: time 2016-02-05_12:27:33 on domain   3:     .25672 elapsed seconds
Timing for main: time 2016-02-05_12:27:46 on domain   3:     .23977 elapsed seconds
Timing for main: time 2016-02-05_12:28:00 on domain   3:     .23981 elapsed seconds
Timing for main: time 2016-02-05_12:27:40 on domain   4:     .29495 elapsed seconds
Timing for main: time 2016-02-05_12:28:00 on domain   4:     .28294 elapsed seconds
Timing for main: time 2016-02-05_12:28:00 on domain   2:    2.17974 elapsed seconds
Timing for main: time 2016-02-05_12:28:00 on domain   1:    7.05926 elapsed seconds
  photolysis_driver: called for domain  1
Timing for main: time 2016-02-05_12:28:13 on domain   3:     .25519 elapsed seconds
Timing for main: time 2016-02-05_12:28:26 on domain   3:     .24089 elapsed seconds
Timing for main: time 2016-02-05_12:28:40 on domain   3:     .23973 elapsed seconds
Timing for main: time 2016-02-05_12:28:20 on domain   4:     .29509 elapsed seconds
Timing for main: time 2016-02-05_12:28:40 on domain   4:     .28311 elapsed seconds
Timing for main: time 2016-02-05_12:28:40 on domain   2:    2.19054 elapsed seconds
Timing for main: time 2016-02-05_12:28:53 on domain   3:     .25619 elapsed seconds
Timing for main: time 2016-02-05_12:29:06 on domain   3:     .24129 elapsed seconds
Timing for main: time 2016-02-05_12:29:20 on domain   3:     .24151 elapsed seconds
Timing for main: time 2016-02-05_12:29:00 on domain   4:     .29553 elapsed seconds
Timing for main: time 2016-02-05_12:29:20 on domain   4:     .28375 elapsed seconds
Timing for main: time 2016-02-05_12:29:20 on domain   2:    2.18592 elapsed seconds
  photolysis_driver: called for domain  2
Timing for main: time 2016-02-05_12:29:33 on domain   3:     .25611 elapsed seconds
Timing for main: time 2016-02-05_12:29:46 on domain   3:     .24461 elapsed seconds
  photolysis_driver: called for domain  3
Timing for main: time 2016-02-05_12:30:00 on domain   3:    1.20935 elapsed seconds
Timing for main: time 2016-02-05_12:29:40 on domain   4:     .29587 elapsed seconds
  photolysis_driver: called for domain  4
Timing for main: time 2016-02-05_12:30:00 on domain   4:    1.42565 elapsed seconds
Timing for main: time 2016-02-05_12:30:00 on domain   2:    5.51800 elapsed seconds
Timing for main: time 2016-02-05_12:30:00 on domain   1:   11.06332 elapsed seconds
Timing for main: time 2016-02-05_12:30:13 on domain   3:     .45530 elapsed seconds
Timing for main: time 2016-02-05_12:30:26 on domain   3:     .23949 elapsed seconds
Timing for main: time 2016-02-05_12:30:40 on domain   3:     .24755 elapsed seconds
Timing for main: time 2016-02-05_12:30:20 on domain   4:     .53802 elapsed seconds
Timing for main: time 2016-02-05_12:30:40 on domain   4:     .28258 elapsed seconds
Timing for main: time 2016-02-05_12:30:40 on domain   2:    2.89649 elapsed seconds
Timing for main: time 2016-02-05_12:30:53 on domain   3:     .25679 elapsed seconds
Timing for main: time 2016-02-05_12:31:06 on domain   3:     .23657 elapsed seconds
Timing for main: time 2016-02-05_12:31:20 on domain   3:     .23875 elapsed seconds
Timing for main: time 2016-02-05_12:31:00 on domain   4:     .29451 elapsed seconds
Timing for main: time 2016-02-05_12:31:20 on domain   4:     .28088 elapsed seconds
Timing for main: time 2016-02-05_12:31:20 on domain   2:    2.17178 elapsed seconds
Timing for main: time 2016-02-05_12:31:33 on domain   3:     .25456 elapsed seconds
Timing for main: time 2016-02-05_12:31:46 on domain   3:     .23869 elapsed seconds
Timing for main: time 2016-02-05_12:32:00 on domain   3:     .24036 elapsed seconds
Timing for main: time 2016-02-05_12:31:40 on domain   4:     .29509 elapsed seconds
Timing for main: time 2016-02-05_12:32:00 on domain   4:     .28076 elapsed seconds
Timing for main: time 2016-02-05_12:32:00 on domain   2:    2.18531 elapsed seconds
Timing for main: time 2016-02-05_12:32:00 on domain   1:    7.87799 elapsed seconds
Timing for main: time 2016-02-05_12:32:13 on domain   3:     .25476 elapsed seconds
Timing for main: time 2016-02-05_12:32:26 on domain   3:     .23870 elapsed seconds
Timing for main: time 2016-02-05_12:32:40 on domain   3:     .23929 elapsed seconds
Timing for main: time 2016-02-05_12:32:20 on domain   4:     .29452 elapsed seconds
Timing for main: time 2016-02-05_12:32:40 on domain   4:     .28199 elapsed seconds
Timing for main: time 2016-02-05_12:32:40 on domain   2:    2.18077 elapsed seconds
Timing for main: time 2016-02-05_12:32:53 on domain   3:     .25364 elapsed seconds
Timing for main: time 2016-02-05_12:33:06 on domain   3:     .23912 elapsed seconds
Timing for main: time 2016-02-05_12:33:20 on domain   3:     .23945 elapsed seconds
Timing for main: time 2016-02-05_12:33:00 on domain   4:     .29399 elapsed seconds
Timing for main: time 2016-02-05_12:33:20 on domain   4:     .28196 elapsed seconds
Timing for main: time 2016-02-05_12:33:20 on domain   2:    2.17081 elapsed seconds
Timing for main: time 2016-02-05_12:33:33 on domain   3:     .25576 elapsed seconds
Timing for main: time 2016-02-05_12:33:46 on domain   3:     .23973 elapsed seconds
Timing for main: time 2016-02-05_12:34:00 on domain   3:     .23915 elapsed seconds
Timing for main: time 2016-02-05_12:33:40 on domain   4:     .29307 elapsed seconds
Timing for main: time 2016-02-05_12:34:00 on domain   4:     .28177 elapsed seconds
Timing for main: time 2016-02-05_12:34:00 on domain   2:    2.17465 elapsed seconds
Timing for main: time 2016-02-05_12:34:00 on domain   1:    6.97830 elapsed seconds
Timing for main: time 2016-02-05_12:34:13 on domain   3:     .25494 elapsed seconds
Timing for main: time 2016-02-05_12:34:26 on domain   3:     .23821 elapsed seconds
Timing for main: time 2016-02-05_12:34:40 on domain   3:     .23924 elapsed seconds
Timing for main: time 2016-02-05_12:34:20 on domain   4:     .29541 elapsed seconds
Timing for main: time 2016-02-05_12:34:40 on domain   4:     .28253 elapsed seconds
Timing for main: time 2016-02-05_12:34:40 on domain   2:    2.18256 elapsed seconds
Timing for main: time 2016-02-05_12:34:53 on domain   3:     .26046 elapsed seconds
Timing for main: time 2016-02-05_12:35:06 on domain   3:     .23734 elapsed seconds
Timing for main: time 2016-02-05_12:35:20 on domain   3:     .24099 elapsed seconds
Timing for main: time 2016-02-05_12:35:00 on domain   4:     .30459 elapsed seconds
Timing for main: time 2016-02-05_12:35:20 on domain   4:     .28393 elapsed seconds
Timing for main: time 2016-02-05_12:35:20 on domain   2:    2.19130 elapsed seconds
Timing for main: time 2016-02-05_12:35:33 on domain   3:     .25486 elapsed seconds
Timing for main: time 2016-02-05_12:35:46 on domain   3:     .24897 elapsed seconds
Timing for main: time 2016-02-05_12:36:00 on domain   3:     .32159 elapsed seconds
Timing for main: time 2016-02-05_12:35:40 on domain   4:     .29335 elapsed seconds
Timing for main: time 2016-02-05_12:36:00 on domain   4:     .28221 elapsed seconds
Timing for main: time 2016-02-05_12:36:00 on domain   2:    2.29659 elapsed seconds
Timing for main: time 2016-02-05_12:36:00 on domain   1:    7.13055 elapsed seconds
Timing for main: time 2016-02-05_12:36:13 on domain   3:     .25293 elapsed seconds
Timing for main: time 2016-02-05_12:36:26 on domain   3:     .24284 elapsed seconds
Timing for main: time 2016-02-05_12:36:40 on domain   3:     .24216 elapsed seconds
Timing for main: time 2016-02-05_12:36:20 on domain   4:     .29646 elapsed seconds
Timing for main: time 2016-02-05_12:36:40 on domain   4:     .27892 elapsed seconds
Timing for main: time 2016-02-05_12:36:40 on domain   2:    2.18995 elapsed seconds
Timing for main: time 2016-02-05_12:36:53 on domain   3:     .25444 elapsed seconds
Timing for main: time 2016-02-05_12:37:06 on domain   3:     .23861 elapsed seconds
Timing for main: time 2016-02-05_12:37:20 on domain   3:     .23968 elapsed seconds
Timing for main: time 2016-02-05_12:37:00 on domain   4:     .29381 elapsed seconds
Timing for main: time 2016-02-05_12:37:20 on domain   4:     .28289 elapsed seconds
Timing for main: time 2016-02-05_12:37:20 on domain   2:    2.18725 elapsed seconds
Timing for main: time 2016-02-05_12:37:33 on domain   3:     .25440 elapsed seconds
Timing for main: time 2016-02-05_12:37:46 on domain   3:     .23887 elapsed seconds
Timing for main: time 2016-02-05_12:38:00 on domain   3:     .23965 elapsed seconds
Timing for main: time 2016-02-05_12:37:40 on domain   4:     .29406 elapsed seconds
Timing for main: time 2016-02-05_12:38:00 on domain   4:     .28095 elapsed seconds
Timing for main: time 2016-02-05_12:38:00 on domain   2:    2.26020 elapsed seconds
Timing for main: time 2016-02-05_12:38:00 on domain   1:    7.09026 elapsed seconds
Timing for main: time 2016-02-05_12:38:13 on domain   3:     .25447 elapsed seconds
Timing for main: time 2016-02-05_12:38:26 on domain   3:     .24107 elapsed seconds
Timing for main: time 2016-02-05_12:38:40 on domain   3:     .23845 elapsed seconds
Timing for main: time 2016-02-05_12:38:20 on domain   4:     .29377 elapsed seconds
Timing for main: time 2016-02-05_12:38:40 on domain   4:     .28131 elapsed seconds
Timing for main: time 2016-02-05_12:38:40 on domain   2:    2.18195 elapsed seconds
Timing for main: time 2016-02-05_12:38:53 on domain   3:     .25444 elapsed seconds
Timing for main: time 2016-02-05_12:39:06 on domain   3:     .23959 elapsed seconds
Timing for main: time 2016-02-05_12:39:20 on domain   3:     .24034 elapsed seconds
Timing for main: time 2016-02-05_12:39:00 on domain   4:     .29417 elapsed seconds
Timing for main: time 2016-02-05_12:39:20 on domain   4:     .28135 elapsed seconds
Timing for main: time 2016-02-05_12:39:20 on domain   2:    2.17569 elapsed seconds
Timing for main: time 2016-02-05_12:39:33 on domain   3:     .24888 elapsed seconds
Timing for main: time 2016-02-05_12:39:46 on domain   3:     .23779 elapsed seconds
Timing for main: time 2016-02-05_12:40:00 on domain   3:     .23998 elapsed seconds
Timing for main: time 2016-02-05_12:39:40 on domain   4:     .29275 elapsed seconds
Timing for main: time 2016-02-05_12:40:00 on domain   4:     .29275 elapsed seconds
Timing for main: time 2016-02-05_12:40:00 on domain   2:    2.18317 elapsed seconds
Timing for main: time 2016-02-05_12:40:00 on domain   1:    6.99379 elapsed seconds
Timing for main: time 2016-02-05_12:40:13 on domain   3:     .25397 elapsed seconds
Timing for main: time 2016-02-05_12:40:26 on domain   3:     .24101 elapsed seconds
Timing for main: time 2016-02-05_12:40:40 on domain   3:     .23677 elapsed seconds
Timing for main: time 2016-02-05_12:40:20 on domain   4:     .29334 elapsed seconds
Timing for main: time 2016-02-05_12:40:40 on domain   4:     .28213 elapsed seconds
Timing for main: time 2016-02-05_12:40:40 on domain   2:    2.18251 elapsed seconds
Timing for main: time 2016-02-05_12:40:53 on domain   3:     .26381 elapsed seconds
Timing for main: time 2016-02-05_12:41:06 on domain   3:     .23941 elapsed seconds
Timing for main: time 2016-02-05_12:41:20 on domain   3:     .23853 elapsed seconds
Timing for main: time 2016-02-05_12:41:00 on domain   4:     .29300 elapsed seconds
Timing for main: time 2016-02-05_12:41:20 on domain   4:     .28195 elapsed seconds
Timing for main: time 2016-02-05_12:41:20 on domain   2:    2.18260 elapsed seconds
Timing for main: time 2016-02-05_12:41:33 on domain   3:     .25487 elapsed seconds
Timing for main: time 2016-02-05_12:41:46 on domain   3:     .24153 elapsed seconds
Timing for main: time 2016-02-05_12:42:00 on domain   3:     .25133 elapsed seconds
Timing for main: time 2016-02-05_12:41:40 on domain   4:     .29350 elapsed seconds
Timing for main: time 2016-02-05_12:42:00 on domain   4:     .28145 elapsed seconds
Timing for main: time 2016-02-05_12:42:00 on domain   2:    2.19489 elapsed seconds
Timing for main: time 2016-02-05_12:42:00 on domain   1:    7.01986 elapsed seconds
Timing for main: time 2016-02-05_12:42:13 on domain   3:     .25268 elapsed seconds
Timing for main: time 2016-02-05_12:42:26 on domain   3:     .24010 elapsed seconds
Timing for main: time 2016-02-05_12:42:40 on domain   3:     .23897 elapsed seconds
Timing for main: time 2016-02-05_12:42:20 on domain   4:     .29443 elapsed seconds
Timing for main: time 2016-02-05_12:42:40 on domain   4:     .28150 elapsed seconds
Timing for main: time 2016-02-05_12:42:40 on domain   2:    2.19624 elapsed seconds
Timing for main: time 2016-02-05_12:42:53 on domain   3:     .25504 elapsed seconds
Timing for main: time 2016-02-05_12:43:06 on domain   3:     .23936 elapsed seconds
Timing for main: time 2016-02-05_12:43:20 on domain   3:     .24020 elapsed seconds
Timing for main: time 2016-02-05_12:43:00 on domain   4:     .29407 elapsed seconds
Timing for main: time 2016-02-05_12:43:20 on domain   4:     .28199 elapsed seconds
Timing for main: time 2016-02-05_12:43:20 on domain   2:    2.17559 elapsed seconds
Timing for main: time 2016-02-05_12:43:33 on domain   3:     .25279 elapsed seconds
Timing for main: time 2016-02-05_12:43:46 on domain   3:     .24128 elapsed seconds
Timing for main: time 2016-02-05_12:44:00 on domain   3:     .23934 elapsed seconds
Timing for main: time 2016-02-05_12:43:40 on domain   4:     .29395 elapsed seconds
Timing for main: time 2016-02-05_12:44:00 on domain   4:     .28148 elapsed seconds
Timing for main: time 2016-02-05_12:44:00 on domain   2:    2.17893 elapsed seconds
Timing for main: time 2016-02-05_12:44:00 on domain   1:    7.00491 elapsed seconds
Timing for main: time 2016-02-05_12:44:13 on domain   3:     .25449 elapsed seconds
Timing for main: time 2016-02-05_12:44:26 on domain   3:     .24025 elapsed seconds
Timing for main: time 2016-02-05_12:44:40 on domain   3:     .24001 elapsed seconds
Timing for main: time 2016-02-05_12:44:20 on domain   4:     .29654 elapsed seconds
Timing for main: time 2016-02-05_12:44:40 on domain   4:     .28132 elapsed seconds
Timing for main: time 2016-02-05_12:44:40 on domain   2:    2.18564 elapsed seconds
Timing for main: time 2016-02-05_12:44:53 on domain   3:     .27300 elapsed seconds
Timing for main: time 2016-02-05_12:45:06 on domain   3:     .25433 elapsed seconds
Timing for main: time 2016-02-05_12:45:20 on domain   3:     .23964 elapsed seconds
Timing for main: time 2016-02-05_12:45:00 on domain   4:     .30024 elapsed seconds
Timing for main: time 2016-02-05_12:45:20 on domain   4:     .29814 elapsed seconds
Timing for main: time 2016-02-05_12:45:20 on domain   2:    2.23467 elapsed seconds
Timing for main: time 2016-02-05_12:45:33 on domain   3:     .25512 elapsed seconds
Timing for main: time 2016-02-05_12:45:46 on domain   3:     .23880 elapsed seconds
Timing for main: time 2016-02-05_12:46:00 on domain   3:     .24883 elapsed seconds
Timing for main: time 2016-02-05_12:45:40 on domain   4:     .29350 elapsed seconds
Timing for main: time 2016-02-05_12:46:00 on domain   4:     .28200 elapsed seconds
Timing for main: time 2016-02-05_12:46:00 on domain   2:    2.23786 elapsed seconds
Timing for main: time 2016-02-05_12:46:00 on domain   1:    7.11360 elapsed seconds
Timing for main: time 2016-02-05_12:46:13 on domain   3:     .25667 elapsed seconds
Timing for main: time 2016-02-05_12:46:26 on domain   3:     .24055 elapsed seconds
Timing for main: time 2016-02-05_12:46:40 on domain   3:     .24000 elapsed seconds
Timing for main: time 2016-02-05_12:46:20 on domain   4:     .29460 elapsed seconds
Timing for main: time 2016-02-05_12:46:40 on domain   4:     .28143 elapsed seconds
Timing for main: time 2016-02-05_12:46:40 on domain   2:    2.18672 elapsed seconds
Timing for main: time 2016-02-05_12:46:53 on domain   3:     .25479 elapsed seconds
Timing for main: time 2016-02-05_12:47:06 on domain   3:     .23898 elapsed seconds
Timing for main: time 2016-02-05_12:47:20 on domain   3:     .24117 elapsed seconds
Timing for main: time 2016-02-05_12:47:00 on domain   4:     .29465 elapsed seconds
Timing for main: time 2016-02-05_12:47:20 on domain   4:     .28369 elapsed seconds
Timing for main: time 2016-02-05_12:47:20 on domain   2:    2.17782 elapsed seconds
Timing for main: time 2016-02-05_12:47:33 on domain   3:     .25406 elapsed seconds
Timing for main: time 2016-02-05_12:47:46 on domain   3:     .24060 elapsed seconds
Timing for main: time 2016-02-05_12:48:00 on domain   3:     .24211 elapsed seconds
Timing for main: time 2016-02-05_12:47:40 on domain   4:     .29357 elapsed seconds
Timing for main: time 2016-02-05_12:48:00 on domain   4:     .28158 elapsed seconds
Timing for main: time 2016-02-05_12:48:00 on domain   2:    2.18850 elapsed seconds
Timing for main: time 2016-02-05_12:48:00 on domain   1:    7.01181 elapsed seconds
Timing for main: time 2016-02-05_12:48:13 on domain   3:     .25580 elapsed seconds
Timing for main: time 2016-02-05_12:48:26 on domain   3:     .23959 elapsed seconds
Timing for main: time 2016-02-05_12:48:40 on domain   3:     .23990 elapsed seconds
Timing for main: time 2016-02-05_12:48:20 on domain   4:     .29430 elapsed seconds
Timing for main: time 2016-02-05_12:48:40 on domain   4:     .28122 elapsed seconds
Timing for main: time 2016-02-05_12:48:40 on domain   2:    2.18385 elapsed seconds
Timing for main: time 2016-02-05_12:48:53 on domain   3:     .25386 elapsed seconds
Timing for main: time 2016-02-05_12:49:06 on domain   3:     .24446 elapsed seconds
Timing for main: time 2016-02-05_12:49:20 on domain   3:     .23642 elapsed seconds
Timing for main: time 2016-02-05_12:49:00 on domain   4:     .29396 elapsed seconds
Timing for main: time 2016-02-05_12:49:20 on domain   4:     .28229 elapsed seconds
Timing for main: time 2016-02-05_12:49:20 on domain   2:    2.17624 elapsed seconds
Timing for main: time 2016-02-05_12:49:33 on domain   3:     .25443 elapsed seconds
Timing for main: time 2016-02-05_12:49:46 on domain   3:     .23811 elapsed seconds
Timing for main: time 2016-02-05_12:50:00 on domain   3:     .23823 elapsed seconds
Timing for main: time 2016-02-05_12:49:40 on domain   4:     .29413 elapsed seconds
Timing for main: time 2016-02-05_12:50:00 on domain   4:     .29269 elapsed seconds
Timing for main: time 2016-02-05_12:50:00 on domain   2:    2.18017 elapsed seconds
Timing for main: time 2016-02-05_12:50:00 on domain   1:    6.99272 elapsed seconds
Timing for main: time 2016-02-05_12:50:13 on domain   3:     .24574 elapsed seconds
Timing for main: time 2016-02-05_12:50:26 on domain   3:     .24017 elapsed seconds
Timing for main: time 2016-02-05_12:50:40 on domain   3:     .23920 elapsed seconds
Timing for main: time 2016-02-05_12:50:20 on domain   4:     .29404 elapsed seconds
Timing for main: time 2016-02-05_12:50:40 on domain   4:     .28103 elapsed seconds
Timing for main: time 2016-02-05_12:50:40 on domain   2:    2.18381 elapsed seconds
Timing for main: time 2016-02-05_12:50:53 on domain   3:     .24901 elapsed seconds
Timing for main: time 2016-02-05_12:51:06 on domain   3:     .24950 elapsed seconds
Timing for main: time 2016-02-05_12:51:20 on domain   3:     .23884 elapsed seconds
Timing for main: time 2016-02-05_12:51:00 on domain   4:     .29339 elapsed seconds
Timing for main: time 2016-02-05_12:51:20 on domain   4:     .28193 elapsed seconds
Timing for main: time 2016-02-05_12:51:20 on domain   2:    2.18375 elapsed seconds
Timing for main: time 2016-02-05_12:51:33 on domain   3:     .28797 elapsed seconds
Timing for main: time 2016-02-05_12:51:46 on domain   3:     .23352 elapsed seconds
Timing for main: time 2016-02-05_12:52:00 on domain   3:     .23909 elapsed seconds
Timing for main: time 2016-02-05_12:51:40 on domain   4:     .29384 elapsed seconds
Timing for main: time 2016-02-05_12:52:00 on domain   4:     .28235 elapsed seconds
Timing for main: time 2016-02-05_12:52:00 on domain   2:    2.20381 elapsed seconds
Timing for main: time 2016-02-05_12:52:00 on domain   1:    7.02379 elapsed seconds
Timing for main: time 2016-02-05_12:52:13 on domain   3:     .25488 elapsed seconds
Timing for main: time 2016-02-05_12:52:26 on domain   3:     .23793 elapsed seconds
Timing for main: time 2016-02-05_12:52:40 on domain   3:     .24084 elapsed seconds
Timing for main: time 2016-02-05_12:52:20 on domain   4:     .29388 elapsed seconds
Timing for main: time 2016-02-05_12:52:40 on domain   4:     .28166 elapsed seconds
Timing for main: time 2016-02-05_12:52:40 on domain   2:    2.18024 elapsed seconds
Timing for main: time 2016-02-05_12:52:53 on domain   3:     .25450 elapsed seconds
Timing for main: time 2016-02-05_12:53:06 on domain   3:     .23734 elapsed seconds
Timing for main: time 2016-02-05_12:53:20 on domain   3:     .23927 elapsed seconds
Timing for main: time 2016-02-05_12:53:00 on domain   4:     .29458 elapsed seconds
Timing for main: time 2016-02-05_12:53:20 on domain   4:     .28128 elapsed seconds
Timing for main: time 2016-02-05_12:53:20 on domain   2:    2.18138 elapsed seconds
Timing for main: time 2016-02-05_12:53:33 on domain   3:     .25496 elapsed seconds
Timing for main: time 2016-02-05_12:53:46 on domain   3:     .23792 elapsed seconds
Timing for main: time 2016-02-05_12:54:00 on domain   3:     .24259 elapsed seconds
Timing for main: time 2016-02-05_12:53:40 on domain   4:     .29399 elapsed seconds
Timing for main: time 2016-02-05_12:54:00 on domain   4:     .28176 elapsed seconds
Timing for main: time 2016-02-05_12:54:00 on domain   2:    2.17172 elapsed seconds
Timing for main: time 2016-02-05_12:54:00 on domain   1:    6.99384 elapsed seconds
Timing for main: time 2016-02-05_12:54:13 on domain   3:     .25530 elapsed seconds
Timing for main: time 2016-02-05_12:54:26 on domain   3:     .23798 elapsed seconds
Timing for main: time 2016-02-05_12:54:40 on domain   3:     .24391 elapsed seconds
Timing for main: time 2016-02-05_12:54:20 on domain   4:     .29495 elapsed seconds
Timing for main: time 2016-02-05_12:54:40 on domain   4:     .28198 elapsed seconds
Timing for main: time 2016-02-05_12:54:40 on domain   2:    2.18683 elapsed seconds
Timing for main: time 2016-02-05_12:54:53 on domain   3:     .25376 elapsed seconds
Timing for main: time 2016-02-05_12:55:06 on domain   3:     .23897 elapsed seconds
Timing for main: time 2016-02-05_12:55:20 on domain   3:     .23783 elapsed seconds
Timing for main: time 2016-02-05_12:55:00 on domain   4:     .30522 elapsed seconds
Timing for main: time 2016-02-05_12:55:20 on domain   4:     .28273 elapsed seconds
Timing for main: time 2016-02-05_12:55:20 on domain   2:    2.18137 elapsed seconds
Timing for main: time 2016-02-05_12:55:33 on domain   3:     .25381 elapsed seconds
Timing for main: time 2016-02-05_12:55:46 on domain   3:     .23880 elapsed seconds
Timing for main: time 2016-02-05_12:56:00 on domain   3:     .23989 elapsed seconds
Timing for main: time 2016-02-05_12:55:40 on domain   4:     .29412 elapsed seconds
Timing for main: time 2016-02-05_12:56:00 on domain   4:     .28218 elapsed seconds
Timing for main: time 2016-02-05_12:56:00 on domain   2:    2.17163 elapsed seconds
Timing for main: time 2016-02-05_12:56:00 on domain   1:    6.99220 elapsed seconds
Timing for main: time 2016-02-05_12:56:13 on domain   3:     .26502 elapsed seconds
Timing for main: time 2016-02-05_12:56:26 on domain   3:     .23943 elapsed seconds
Timing for main: time 2016-02-05_12:56:40 on domain   3:     .23898 elapsed seconds
Timing for main: time 2016-02-05_12:56:20 on domain   4:     .29428 elapsed seconds
Timing for main: time 2016-02-05_12:56:40 on domain   4:     .28100 elapsed seconds
Timing for main: time 2016-02-05_12:56:40 on domain   2:    2.19072 elapsed seconds
Timing for main: time 2016-02-05_12:56:53 on domain   3:     .25422 elapsed seconds
Timing for main: time 2016-02-05_12:57:06 on domain   3:     .23869 elapsed seconds
Timing for main: time 2016-02-05_12:57:20 on domain   3:     .23836 elapsed seconds
Timing for main: time 2016-02-05_12:57:00 on domain   4:     .29472 elapsed seconds
Timing for main: time 2016-02-05_12:57:20 on domain   4:     .28111 elapsed seconds
Timing for main: time 2016-02-05_12:57:20 on domain   2:    2.16980 elapsed seconds
Timing for main: time 2016-02-05_12:57:33 on domain   3:     .25491 elapsed seconds
Timing for main: time 2016-02-05_12:57:46 on domain   3:     .24180 elapsed seconds
Timing for main: time 2016-02-05_12:58:00 on domain   3:     .23812 elapsed seconds
Timing for main: time 2016-02-05_12:57:40 on domain   4:     .29423 elapsed seconds
Timing for main: time 2016-02-05_12:58:00 on domain   4:     .28237 elapsed seconds
Timing for main: time 2016-02-05_12:58:00 on domain   2:    2.17420 elapsed seconds
Timing for main: time 2016-02-05_12:58:00 on domain   1:    6.98695 elapsed seconds
  photolysis_driver: called for domain  1
Timing for main: time 2016-02-05_12:58:13 on domain   3:     .25461 elapsed seconds
Timing for main: time 2016-02-05_12:58:26 on domain   3:     .23835 elapsed seconds
Timing for main: time 2016-02-05_12:58:40 on domain   3:     .23848 elapsed seconds
Timing for main: time 2016-02-05_12:58:20 on domain   4:     .34747 elapsed seconds
Timing for main: time 2016-02-05_12:58:40 on domain   4:     .30895 elapsed seconds
Timing for main: time 2016-02-05_12:58:40 on domain   2:    2.27206 elapsed seconds
Timing for main: time 2016-02-05_12:58:53 on domain   3:     .25468 elapsed seconds
Timing for main: time 2016-02-05_12:59:06 on domain   3:     .23954 elapsed seconds
Timing for main: time 2016-02-05_12:59:20 on domain   3:     .23838 elapsed seconds
Timing for main: time 2016-02-05_12:59:00 on domain   4:     .29452 elapsed seconds
Timing for main: time 2016-02-05_12:59:20 on domain   4:     .28195 elapsed seconds
Timing for main: time 2016-02-05_12:59:20 on domain   2:    2.17284 elapsed seconds
  photolysis_driver: called for domain  2
Timing for main: time 2016-02-05_12:59:33 on domain   3:     .25456 elapsed seconds
Timing for main: time 2016-02-05_12:59:46 on domain   3:     .23978 elapsed seconds
  photolysis_driver: called for domain  3
Timing for main: time 2016-02-05_13:00:00 on domain   3:    1.22201 elapsed seconds
Timing for main: time 2016-02-05_12:59:40 on domain   4:     .29422 elapsed seconds
  photolysis_driver: called for domain  4
Timing for main: time 2016-02-05_13:00:00 on domain   4:    1.42605 elapsed seconds
Timing for main: time 2016-02-05_13:00:00 on domain   2:    5.53927 elapsed seconds
Timing for main: time 2016-02-05_13:00:00 on domain   1:   11.14842 elapsed seconds
Timing for Writing wrfout_d01_2016-02-05_13:00:00 for domain        1:    1.99040 elapsed seconds
  HOURLY EMISSIONS UPDATE TIME     3600.0        .0
 mediation_integrate: med_read_wrf_chem_emissions: Read emissions for time 2016-02-05_13:00:00
 **WARNING** Time in input file not being checked **WARNING**
Timing for Writing wrfout_d02_2016-02-05_13:00:00 for domain        2:    3.29568 elapsed seconds
Timing for Writing wrfout_d03_2016-02-05_13:00:00 for domain        3:    2.49442 elapsed seconds
Timing for main: time 2016-02-05_13:00:13 on domain   3:    3.04674 elapsed seconds
Timing for main: time 2016-02-05_13:00:26 on domain   3:     .24077 elapsed seconds
Timing for main: time 2016-02-05_13:00:40 on domain   3:     .24045 elapsed seconds
Timing for Writing wrfout_d04_2016-02-05_13:00:00 for domain        4:    2.67979 elapsed seconds
Timing for main: time 2016-02-05_13:00:20 on domain   4:    3.32217 elapsed seconds
Timing for main: time 2016-02-05_13:00:40 on domain   4:     .28322 elapsed seconds
Timing for main: time 2016-02-05_13:00:40 on domain   2:   11.56787 elapsed seconds
Timing for main: time 2016-02-05_13:00:53 on domain   3:     .25284 elapsed seconds
Timing for main: time 2016-02-05_13:01:06 on domain   3:     .24103 elapsed seconds
Timing for main: time 2016-02-05_13:01:20 on domain   3:     .24958 elapsed seconds
Timing for main: time 2016-02-05_13:01:00 on domain   4:     .29461 elapsed seconds
Timing for main: time 2016-02-05_13:01:20 on domain   4:     .28188 elapsed seconds
Timing for main: time 2016-02-05_13:01:20 on domain   2:    2.18435 elapsed seconds
Timing for main: time 2016-02-05_13:01:33 on domain   3:     .25773 elapsed seconds
Timing for main: time 2016-02-05_13:01:46 on domain   3:     .24065 elapsed seconds
Timing for main: time 2016-02-05_13:02:00 on domain   3:     .24101 elapsed seconds
Timing for main: time 2016-02-05_13:01:40 on domain   4:     .29534 elapsed seconds
Timing for main: time 2016-02-05_13:02:00 on domain   4:     .28237 elapsed seconds
Timing for main: time 2016-02-05_13:02:00 on domain   2:    2.18458 elapsed seconds
Timing for main: time 2016-02-05_13:02:00 on domain   1:   19.00958 elapsed seconds
Timing for main: time 2016-02-05_13:02:13 on domain   3:     .25194 elapsed seconds
Timing for main: time 2016-02-05_13:02:26 on domain   3:     .24193 elapsed seconds
Timing for main: time 2016-02-05_13:02:40 on domain   3:     .23985 elapsed seconds
Timing for main: time 2016-02-05_13:02:20 on domain   4:     .29463 elapsed seconds
Timing for main: time 2016-02-05_13:02:40 on domain   4:     .28145 elapsed seconds
Timing for main: time 2016-02-05_13:02:40 on domain   2:    2.18702 elapsed seconds
Timing for main: time 2016-02-05_13:02:53 on domain   3:     .25470 elapsed seconds
Timing for main: time 2016-02-05_13:03:06 on domain   3:     .24078 elapsed seconds
Timing for main: time 2016-02-05_13:03:20 on domain   3:     .23849 elapsed seconds
Timing for main: time 2016-02-05_13:03:00 on domain   4:     .29580 elapsed seconds
Timing for main: time 2016-02-05_13:03:20 on domain   4:     .28152 elapsed seconds
Timing for main: time 2016-02-05_13:03:20 on domain   2:    2.17887 elapsed seconds
Timing for main: time 2016-02-05_13:03:33 on domain   3:     .25350 elapsed seconds
Timing for main: time 2016-02-05_13:03:46 on domain   3:     .23922 elapsed seconds
Timing for main: time 2016-02-05_13:04:00 on domain   3:     .23844 elapsed seconds
Timing for main: time 2016-02-05_13:03:40 on domain   4:     .29459 elapsed seconds
Timing for main: time 2016-02-05_13:04:00 on domain   4:     .28151 elapsed seconds
Timing for main: time 2016-02-05_13:04:00 on domain   2:    2.18736 elapsed seconds
Timing for main: time 2016-02-05_13:04:00 on domain   1:    7.00488 elapsed seconds
Timing for main: time 2016-02-05_13:04:13 on domain   3:     .25312 elapsed seconds
Timing for main: time 2016-02-05_13:04:26 on domain   3:     .24028 elapsed seconds
Timing for main: time 2016-02-05_13:04:40 on domain   3:     .23978 elapsed seconds
Timing for main: time 2016-02-05_13:04:20 on domain   4:     .29493 elapsed seconds
Timing for main: time 2016-02-05_13:04:40 on domain   4:     .28223 elapsed seconds
Timing for main: time 2016-02-05_13:04:40 on domain   2:    2.18741 elapsed seconds
Timing for main: time 2016-02-05_13:04:53 on domain   3:     .25472 elapsed seconds
Timing for main: time 2016-02-05_13:05:06 on domain   3:     .23946 elapsed seconds
Timing for main: time 2016-02-05_13:05:20 on domain   3:     .24150 elapsed seconds
Timing for main: time 2016-02-05_13:05:00 on domain   4:     .30593 elapsed seconds
Timing for main: time 2016-02-05_13:05:20 on domain   4:     .28219 elapsed seconds
Timing for main: time 2016-02-05_13:05:20 on domain   2:    2.18822 elapsed seconds
Timing for main: time 2016-02-05_13:05:33 on domain   3:     .25588 elapsed seconds
Timing for main: time 2016-02-05_13:05:46 on domain   3:     .24076 elapsed seconds
Timing for main: time 2016-02-05_13:06:00 on domain   3:     .24145 elapsed seconds
Timing for main: time 2016-02-05_13:05:40 on domain   4:     .29507 elapsed seconds
Timing for main: time 2016-02-05_13:06:00 on domain   4:     .28161 elapsed seconds
Timing for main: time 2016-02-05_13:06:00 on domain   2:    2.17862 elapsed seconds
Timing for main: time 2016-02-05_13:06:00 on domain   1:    7.01325 elapsed seconds
Timing for main: time 2016-02-05_13:06:13 on domain   3:     .24984 elapsed seconds
Timing for main: time 2016-02-05_13:06:26 on domain   3:     .24889 elapsed seconds
Timing for main: time 2016-02-05_13:06:40 on domain   3:     .23997 elapsed seconds
Timing for main: time 2016-02-05_13:06:20 on domain   4:     .29504 elapsed seconds
Timing for main: time 2016-02-05_13:06:40 on domain   4:     .28250 elapsed seconds
Timing for main: time 2016-02-05_13:06:40 on domain   2:    2.19722 elapsed seconds
Timing for main: time 2016-02-05_13:06:53 on domain   3:     .25750 elapsed seconds
Timing for main: time 2016-02-05_13:07:06 on domain   3:     .24193 elapsed seconds
Timing for main: time 2016-02-05_13:07:20 on domain   3:     .24018 elapsed seconds
Timing for main: time 2016-02-05_13:07:00 on domain   4:     .29467 elapsed seconds
Timing for main: time 2016-02-05_13:07:20 on domain   4:     .28129 elapsed seconds
Timing for main: time 2016-02-05_13:07:20 on domain   2:    2.17917 elapsed seconds
Timing for main: time 2016-02-05_13:07:33 on domain   3:     .25399 elapsed seconds
Timing for main: time 2016-02-05_13:07:46 on domain   3:     .23923 elapsed seconds
Timing for main: time 2016-02-05_13:08:00 on domain   3:     .23833 elapsed seconds
Timing for main: time 2016-02-05_13:07:40 on domain   4:     .29517 elapsed seconds
Timing for main: time 2016-02-05_13:08:00 on domain   4:     .28178 elapsed seconds
Timing for main: time 2016-02-05_13:08:00 on domain   2:    2.17308 elapsed seconds
Timing for main: time 2016-02-05_13:08:00 on domain   1:    7.00163 elapsed seconds
Timing for main: time 2016-02-05_13:08:13 on domain   3:     .25397 elapsed seconds
Timing for main: time 2016-02-05_13:08:26 on domain   3:     .24923 elapsed seconds
Timing for main: time 2016-02-05_13:08:40 on domain   3:     .34606 elapsed seconds
Timing for main: time 2016-02-05_13:08:20 on domain   4:     .29502 elapsed seconds
Timing for main: time 2016-02-05_13:08:40 on domain   4:     .28231 elapsed seconds
Timing for main: time 2016-02-05_13:08:40 on domain   2:    2.30486 elapsed seconds
Timing for main: time 2016-02-05_13:08:53 on domain   3:     .25483 elapsed seconds
Timing for main: time 2016-02-05_13:09:06 on domain   3:     .24089 elapsed seconds
Timing for main: time 2016-02-05_13:09:20 on domain   3:     .24080 elapsed seconds
Timing for main: time 2016-02-05_13:09:00 on domain   4:     .29458 elapsed seconds
Timing for main: time 2016-02-05_13:09:20 on domain   4:     .28147 elapsed seconds
Timing for main: time 2016-02-05_13:09:20 on domain   2:    2.19145 elapsed seconds
Timing for main: time 2016-02-05_13:09:33 on domain   3:     .25572 elapsed seconds
Timing for main: time 2016-02-05_13:09:46 on domain   3:     .23801 elapsed seconds
Timing for main: time 2016-02-05_13:10:00 on domain   3:     .24028 elapsed seconds
Timing for main: time 2016-02-05_13:09:40 on domain   4:     .29422 elapsed seconds
Timing for main: time 2016-02-05_13:10:00 on domain   4:     .29542 elapsed seconds
Timing for main: time 2016-02-05_13:10:00 on domain   2:    2.18940 elapsed seconds
Timing for main: time 2016-02-05_13:10:00 on domain   1:    7.13768 elapsed seconds
Timing for main: time 2016-02-05_13:10:13 on domain   3:     .25643 elapsed seconds
Timing for main: time 2016-02-05_13:10:26 on domain   3:     .23829 elapsed seconds
Timing for main: time 2016-02-05_13:10:40 on domain   3:     .24011 elapsed seconds
Timing for main: time 2016-02-05_13:10:20 on domain   4:     .29399 elapsed seconds
Timing for main: time 2016-02-05_13:10:40 on domain   4:     .28180 elapsed seconds
Timing for main: time 2016-02-05_13:10:40 on domain   2:    2.18449 elapsed seconds
Timing for main: time 2016-02-05_13:10:53 on domain   3:     .25412 elapsed seconds
Timing for main: time 2016-02-05_13:11:06 on domain   3:     .23967 elapsed seconds
Timing for main: time 2016-02-05_13:11:20 on domain   3:     .23949 elapsed seconds
Timing for main: time 2016-02-05_13:11:00 on domain   4:     .29493 elapsed seconds
Timing for main: time 2016-02-05_13:11:20 on domain   4:     .28155 elapsed seconds
Timing for main: time 2016-02-05_13:11:20 on domain   2:    2.17192 elapsed seconds
Timing for main: time 2016-02-05_13:11:33 on domain   3:     .26288 elapsed seconds
Timing for main: time 2016-02-05_13:11:46 on domain   3:     .23955 elapsed seconds
Timing for main: time 2016-02-05_13:12:00 on domain   3:     .24038 elapsed seconds
Timing for main: time 2016-02-05_13:11:40 on domain   4:     .29395 elapsed seconds
Timing for main: time 2016-02-05_13:12:00 on domain   4:     .28156 elapsed seconds
Timing for main: time 2016-02-05_13:12:00 on domain   2:    2.18179 elapsed seconds
Timing for main: time 2016-02-05_13:12:00 on domain   1:    6.99790 elapsed seconds
Timing for main: time 2016-02-05_13:12:13 on domain   3:     .25524 elapsed seconds
Timing for main: time 2016-02-05_13:12:26 on domain   3:     .23830 elapsed seconds
Timing for main: time 2016-02-05_13:12:40 on domain   3:     .23755 elapsed seconds
Timing for main: time 2016-02-05_13:12:20 on domain   4:     .29412 elapsed seconds
Timing for main: time 2016-02-05_13:12:40 on domain   4:     .28292 elapsed seconds
Timing for main: time 2016-02-05_13:12:40 on domain   2:    2.18222 elapsed seconds
Timing for main: time 2016-02-05_13:12:53 on domain   3:     .25467 elapsed seconds
Timing for main: time 2016-02-05_13:13:06 on domain   3:     .23980 elapsed seconds
Timing for main: time 2016-02-05_13:13:20 on domain   3:     .24357 elapsed seconds
Timing for main: time 2016-02-05_13:13:00 on domain   4:     .29450 elapsed seconds
Timing for main: time 2016-02-05_13:13:20 on domain   4:     .28161 elapsed seconds
Timing for main: time 2016-02-05_13:13:20 on domain   2:    2.17847 elapsed seconds
Timing for main: time 2016-02-05_13:13:33 on domain   3:     .25378 elapsed seconds
Timing for main: time 2016-02-05_13:13:46 on domain   3:     .24110 elapsed seconds
Timing for main: time 2016-02-05_13:14:00 on domain   3:     .23901 elapsed seconds
Timing for main: time 2016-02-05_13:13:40 on domain   4:     .29437 elapsed seconds
Timing for main: time 2016-02-05_13:14:00 on domain   4:     .28350 elapsed seconds
Timing for main: time 2016-02-05_13:14:00 on domain   2:    2.17691 elapsed seconds
Timing for main: time 2016-02-05_13:14:00 on domain   1:    6.98988 elapsed seconds
Timing for main: time 2016-02-05_13:14:13 on domain   3:     .29623 elapsed seconds
Timing for main: time 2016-02-05_13:14:26 on domain   3:     .26073 elapsed seconds
Timing for main: time 2016-02-05_13:14:40 on domain   3:     .23815 elapsed seconds
Timing for main: time 2016-02-05_13:14:20 on domain   4:     .29765 elapsed seconds
Timing for main: time 2016-02-05_13:14:40 on domain   4:     .30900 elapsed seconds
Timing for main: time 2016-02-05_13:14:40 on domain   2:    2.28884 elapsed seconds
Timing for main: time 2016-02-05_13:14:53 on domain   3:     .25451 elapsed seconds
Timing for main: time 2016-02-05_13:15:06 on domain   3:     .23990 elapsed seconds
Timing for main: time 2016-02-05_13:15:20 on domain   3:     .23919 elapsed seconds
Timing for main: time 2016-02-05_13:15:00 on domain   4:     .30549 elapsed seconds
Timing for main: time 2016-02-05_13:15:20 on domain   4:     .28093 elapsed seconds
Timing for main: time 2016-02-05_13:15:20 on domain   2:    2.18428 elapsed seconds
Timing for main: time 2016-02-05_13:15:33 on domain   3:     .25480 elapsed seconds
Timing for main: time 2016-02-05_13:15:46 on domain   3:     .23962 elapsed seconds
Timing for main: time 2016-02-05_13:16:00 on domain   3:     .24010 elapsed seconds
Timing for main: time 2016-02-05_13:15:40 on domain   4:     .29455 elapsed seconds
Timing for main: time 2016-02-05_13:16:00 on domain   4:     .28167 elapsed seconds
Timing for main: time 2016-02-05_13:16:00 on domain   2:    2.17441 elapsed seconds
Timing for main: time 2016-02-05_13:16:00 on domain   1:    7.09765 elapsed seconds
Timing for main: time 2016-02-05_13:16:13 on domain   3:     .25469 elapsed seconds
Timing for main: time 2016-02-05_13:16:26 on domain   3:     .34185 elapsed seconds
Timing for main: time 2016-02-05_13:16:40 on domain   3:     .28538 elapsed seconds
Timing for main: time 2016-02-05_13:16:20 on domain   4:     .29435 elapsed seconds
Timing for main: time 2016-02-05_13:16:40 on domain   4:     .28184 elapsed seconds
Timing for main: time 2016-02-05_13:16:40 on domain   2:    2.33145 elapsed seconds
Timing for main: time 2016-02-05_13:16:53 on domain   3:     .25381 elapsed seconds
Timing for main: time 2016-02-05_13:17:06 on domain   3:     .23935 elapsed seconds
Timing for main: time 2016-02-05_13:17:20 on domain   3:     .23874 elapsed seconds
Timing for main: time 2016-02-05_13:17:00 on domain   4:     .29343 elapsed seconds
Timing for main: time 2016-02-05_13:17:20 on domain   4:     .28265 elapsed seconds
Timing for main: time 2016-02-05_13:17:20 on domain   2:    2.17249 elapsed seconds
Timing for main: time 2016-02-05_13:17:33 on domain   3:     .25258 elapsed seconds
[...]
Timing for main: time 2016-02-05_17:36:00 on domain   2:    2.19260 elapsed seconds
Timing for main: time 2016-02-05_17:36:00 on domain   1:    7.16938 elapsed seconds
Timing for main: time 2016-02-05_17:36:13 on domain   3:     .25617 elapsed seconds
Timing for main: time 2016-02-05_17:36:26 on domain   3:     .24142 elapsed seconds
Timing for main: time 2016-02-05_17:36:40 on domain   3:     .24057 elapsed seconds
Timing for main: time 2016-02-05_17:36:20 on domain   4:     .29265 elapsed seconds
Timing for main: time 2016-02-05_17:36:40 on domain   4:     .28190 elapsed seconds
Timing for main: time 2016-02-05_17:36:40 on domain   2:    2.18969 elapsed seconds
Timing for main: time 2016-02-05_17:36:53 on domain   3:     .25526 elapsed seconds
Timing for main: time 2016-02-05_17:37:06 on domain   3:     .24050 elapsed seconds
Timing for main: time 2016-02-05_17:37:20 on domain   3:     .24939 elapsed seconds
Timing for main: time 2016-02-05_17:37:00 on domain   4:     .29284 elapsed seconds
Timing for main: time 2016-02-05_17:37:20 on domain   4:     .28275 elapsed seconds
Timing for main: time 2016-02-05_17:37:20 on domain   2:    2.19093 elapsed seconds
Timing for main: time 2016-02-05_17:37:33 on domain   3:     .25939 elapsed seconds
Timing for main: time 2016-02-05_17:37:46 on domain   3:     .23999 elapsed seconds
Timing for main: time 2016-02-05_17:38:00 on domain   3:     .24014 elapsed seconds
Timing for main: time 2016-02-05_17:37:40 on domain   4:     .29325 elapsed seconds
Timing for main: time 2016-02-05_17:38:00 on domain   4:     .28242 elapsed seconds
Timing for main: time 2016-02-05_17:38:00 on domain   2:    2.18342 elapsed seconds
Timing for main: time 2016-02-05_17:38:00 on domain   1:    7.01925 elapsed seconds
Timing for main: time 2016-02-05_17:38:13 on domain   3:     .25688 elapsed seconds
Timing for main: time 2016-02-05_17:38:26 on domain   3:     .23990 elapsed seconds
Timing for main: time 2016-02-05_17:38:40 on domain   3:     .24030 elapsed seconds
Timing for main: time 2016-02-05_17:38:20 on domain   4:     .29237 elapsed seconds
Timing for main: time 2016-02-05_17:38:40 on domain   4:     .28241 elapsed seconds
Timing for main: time 2016-02-05_17:38:40 on domain   2:    2.18901 elapsed seconds
Timing for main: time 2016-02-05_17:38:53 on domain   3:     .25572 elapsed seconds
Timing for main: time 2016-02-05_17:39:06 on domain   3:     .24128 elapsed seconds
Timing for main: time 2016-02-05_17:39:20 on domain   3:     .27544 elapsed seconds
Timing for main: time 2016-02-05_17:39:00 on domain   4:     .29354 elapsed seconds
Timing for main: time 2016-02-05_17:39:20 on domain   4:     .28248 elapsed seconds
Timing for main: time 2016-02-05_17:39:20 on domain   2:    2.21704 elapsed seconds
Timing for main: time 2016-02-05_17:39:33 on domain   3:     .25585 elapsed seconds
Timing for main: time 2016-02-05_17:39:46 on domain   3:     .24017 elapsed seconds
Timing for main: time 2016-02-05_17:40:00 on domain   3:     .24016 elapsed seconds
Timing for main: time 2016-02-05_17:39:40 on domain   4:     .29345 elapsed seconds
Timing for main: time 2016-02-05_17:40:00 on domain   4:     .29316 elapsed seconds
Timing for main: time 2016-02-05_17:40:00 on domain   2:    2.19234 elapsed seconds
Timing for main: time 2016-02-05_17:40:00 on domain   1:    7.05425 elapsed seconds
Timing for main: time 2016-02-05_17:40:13 on domain   3:     .25625 elapsed seconds
Timing for main: time 2016-02-05_17:40:26 on domain   3:     .24025 elapsed seconds
Timing for main: time 2016-02-05_17:40:40 on domain   3:     .23929 elapsed seconds
Timing for main: time 2016-02-05_17:40:20 on domain   4:     .29539 elapsed seconds
Timing for main: time 2016-02-05_17:40:40 on domain   4:     .28149 elapsed seconds
Timing for main: time 2016-02-05_17:40:40 on domain   2:    2.19051 elapsed seconds
Timing for main: time 2016-02-05_17:40:53 on domain   3:     .25582 elapsed seconds
Timing for main: time 2016-02-05_17:41:06 on domain   3:     .24024 elapsed seconds
Timing for main: time 2016-02-05_17:41:20 on domain   3:     .24023 elapsed seconds
Timing for main: time 2016-02-05_17:41:00 on domain   4:     .29272 elapsed seconds
Timing for main: time 2016-02-05_17:41:20 on domain   4:     .28180 elapsed seconds
Timing for main: time 2016-02-05_17:41:20 on domain   2:    2.19116 elapsed seconds
Timing for main: time 2016-02-05_17:41:33 on domain   3:     .25566 elapsed seconds
Timing for main: time 2016-02-05_17:41:46 on domain   3:     .24009 elapsed seconds
Timing for main: time 2016-02-05_17:42:00 on domain   3:     .24080 elapsed seconds
Timing for main: time 2016-02-05_17:41:40 on domain   4:     .33207 elapsed seconds
Timing for main: time 2016-02-05_17:42:00 on domain   4:     .31802 elapsed seconds
Timing for main: time 2016-02-05_17:42:00 on domain   2:    2.25457 elapsed seconds
Timing for main: time 2016-02-05_17:42:00 on domain   1:    7.09754 elapsed seconds
Timing for main: time 2016-02-05_17:42:13 on domain   3:     .25599 elapsed seconds
Timing for main: time 2016-02-05_17:42:26 on domain   3:     .24970 elapsed seconds
Timing for main: time 2016-02-05_17:42:40 on domain   3:     .24094 elapsed seconds
Timing for main: time 2016-02-05_17:42:20 on domain   4:     .29348 elapsed seconds
Timing for main: time 2016-02-05_17:42:40 on domain   4:     .28257 elapsed seconds
Timing for main: time 2016-02-05_17:42:40 on domain   2:    2.19970 elapsed seconds
Timing for main: time 2016-02-05_17:42:53 on domain   3:     .25737 elapsed seconds
Timing for main: time 2016-02-05_17:43:06 on domain   3:     .24046 elapsed seconds
Timing for main: time 2016-02-05_17:43:20 on domain   3:     .24465 elapsed seconds
Timing for main: time 2016-02-05_17:43:00 on domain   4:     .29394 elapsed seconds
Timing for main: time 2016-02-05_17:43:20 on domain   4:     .28384 elapsed seconds
Timing for main: time 2016-02-05_17:43:20 on domain   2:    2.18736 elapsed seconds
Timing for main: time 2016-02-05_17:43:33 on domain   3:     .25469 elapsed seconds
Timing for main: time 2016-02-05_17:43:46 on domain   3:     .24080 elapsed seconds
Timing for main: time 2016-02-05_17:44:00 on domain   3:     .24024 elapsed seconds
Timing for main: time 2016-02-05_17:43:40 on domain   4:     .29403 elapsed seconds
Timing for main: time 2016-02-05_17:44:00 on domain   4:     .28153 elapsed seconds
Timing for main: time 2016-02-05_17:44:00 on domain   2:    2.17724 elapsed seconds
Timing for main: time 2016-02-05_17:44:00 on domain   1:    7.03428 elapsed seconds
Timing for main: time 2016-02-05_17:44:13 on domain   3:     .25531 elapsed seconds
Timing for main: time 2016-02-05_17:44:26 on domain   3:     .24045 elapsed seconds
Timing for main: time 2016-02-05_17:44:40 on domain   3:     .24108 elapsed seconds
Timing for main: time 2016-02-05_17:44:20 on domain   4:     .29402 elapsed seconds
Timing for main: time 2016-02-05_17:44:40 on domain   4:     .28182 elapsed seconds
Timing for main: time 2016-02-05_17:44:40 on domain   2:    2.18995 elapsed seconds
Timing for main: time 2016-02-05_17:44:53 on domain   3:     .25609 elapsed seconds
Timing for main: time 2016-02-05_17:45:06 on domain   3:     .24083 elapsed seconds
Timing for main: time 2016-02-05_17:45:20 on domain   3:     .24048 elapsed seconds
Timing for main: time 2016-02-05_17:45:00 on domain   4:     .30636 elapsed seconds
Timing for main: time 2016-02-05_17:45:20 on domain   4:     .27996 elapsed seconds
Timing for main: time 2016-02-05_17:45:20 on domain   2:    2.19374 elapsed seconds
Timing for main: time 2016-02-05_17:45:33 on domain   3:     .25404 elapsed seconds
Timing for main: time 2016-02-05_17:45:46 on domain   3:     .23981 elapsed seconds
Timing for main: time 2016-02-05_17:46:00 on domain   3:     .24026 elapsed seconds
Timing for main: time 2016-02-05_17:45:40 on domain   4:     .29352 elapsed seconds
Timing for main: time 2016-02-05_17:46:00 on domain   4:     .28208 elapsed seconds
Timing for main: time 2016-02-05_17:46:00 on domain   2:    2.18069 elapsed seconds
Timing for main: time 2016-02-05_17:46:00 on domain   1:    7.01881 elapsed seconds
Timing for main: time 2016-02-05_17:46:13 on domain   3:     .25475 elapsed seconds
Timing for main: time 2016-02-05_17:46:26 on domain   3:     .24447 elapsed seconds
Timing for main: time 2016-02-05_17:46:40 on domain   3:     .23946 elapsed seconds
Timing for main: time 2016-02-05_17:46:20 on domain   4:     .29220 elapsed seconds
Timing for main: time 2016-02-05_17:46:40 on domain   4:     .28191 elapsed seconds
Timing for main: time 2016-02-05_17:46:40 on domain   2:    2.20416 elapsed seconds
Timing for main: time 2016-02-05_17:46:53 on domain   3:     .25459 elapsed seconds
Timing for main: time 2016-02-05_17:47:06 on domain   3:     .24258 elapsed seconds
Timing for main: time 2016-02-05_17:47:20 on domain   3:     .24285 elapsed seconds
Timing for main: time 2016-02-05_17:47:00 on domain   4:     .29371 elapsed seconds
Timing for main: time 2016-02-05_17:47:20 on domain   4:     .28123 elapsed seconds
Timing for main: time 2016-02-05_17:47:20 on domain   2:    2.18537 elapsed seconds
Timing for main: time 2016-02-05_17:47:33 on domain   3:     .26571 elapsed seconds
Timing for main: time 2016-02-05_17:47:46 on domain   3:     .23999 elapsed seconds
Timing for main: time 2016-02-05_17:48:00 on domain   3:     .24044 elapsed seconds
Timing for main: time 2016-02-05_17:47:40 on domain   4:     .29355 elapsed seconds
Timing for main: time 2016-02-05_17:48:00 on domain   4:     .28290 elapsed seconds
Timing for main: time 2016-02-05_17:48:00 on domain   2:    2.22931 elapsed seconds
Timing for main: time 2016-02-05_17:48:00 on domain   1:    7.09921 elapsed seconds
Timing for main: time 2016-02-05_17:48:13 on domain   3:     .25622 elapsed seconds
Timing for main: time 2016-02-05_17:48:26 on domain   3:     .23932 elapsed seconds
Timing for main: time 2016-02-05_17:48:40 on domain   3:     .23985 elapsed seconds
Timing for main: time 2016-02-05_17:48:20 on domain   4:     .29445 elapsed seconds
Timing for main: time 2016-02-05_17:48:40 on domain   4:     .28117 elapsed seconds
Timing for main: time 2016-02-05_17:48:40 on domain   2:    2.18430 elapsed seconds
Timing for main: time 2016-02-05_17:48:53 on domain   3:     .25489 elapsed seconds
Timing for main: time 2016-02-05_17:49:06 on domain   3:     .24062 elapsed seconds
Timing for main: time 2016-02-05_17:49:20 on domain   3:     .24349 elapsed seconds
Timing for main: time 2016-02-05_17:49:00 on domain   4:     .32999 elapsed seconds
Timing for main: time 2016-02-05_17:49:20 on domain   4:     .32020 elapsed seconds
Timing for main: time 2016-02-05_17:49:20 on domain   2:    2.26214 elapsed seconds
Timing for main: time 2016-02-05_17:49:33 on domain   3:     .25587 elapsed seconds
Timing for main: time 2016-02-05_17:49:46 on domain   3:     .23969 elapsed seconds
Timing for main: time 2016-02-05_17:50:00 on domain   3:     .24040 elapsed seconds
Timing for main: time 2016-02-05_17:49:40 on domain   4:     .29367 elapsed seconds
Timing for main: time 2016-02-05_17:50:00 on domain   4:     .29279 elapsed seconds
Timing for main: time 2016-02-05_17:50:00 on domain   2:    2.19100 elapsed seconds
Timing for main: time 2016-02-05_17:50:00 on domain   1:    7.09682 elapsed seconds
Timing for main: time 2016-02-05_17:50:13 on domain   3:     .25590 elapsed seconds
Timing for main: time 2016-02-05_17:50:26 on domain   3:     .24026 elapsed seconds
Timing for main: time 2016-02-05_17:50:40 on domain   3:     .24104 elapsed seconds
Timing for main: time 2016-02-05_17:50:20 on domain   4:     .29333 elapsed seconds
Timing for main: time 2016-02-05_17:50:40 on domain   4:     .28166 elapsed seconds
Timing for main: time 2016-02-05_17:50:40 on domain   2:    2.18977 elapsed seconds
Timing for main: time 2016-02-05_17:50:53 on domain   3:     .26131 elapsed seconds
Timing for main: time 2016-02-05_17:51:06 on domain   3:     .24004 elapsed seconds
Timing for main: time 2016-02-05_17:51:20 on domain   3:     .23949 elapsed seconds
Timing for main: time 2016-02-05_17:51:00 on domain   4:     .29404 elapsed seconds
Timing for main: time 2016-02-05_17:51:20 on domain   4:     .28110 elapsed seconds
Timing for main: time 2016-02-05_17:51:20 on domain   2:    2.18384 elapsed seconds
Timing for main: time 2016-02-05_17:51:33 on domain   3:     .25672 elapsed seconds
Timing for main: time 2016-02-05_17:51:46 on domain   3:     .23945 elapsed seconds
Timing for main: time 2016-02-05_17:52:00 on domain   3:     .24006 elapsed seconds
Timing for main: time 2016-02-05_17:51:40 on domain   4:     .29322 elapsed seconds
Timing for main: time 2016-02-05_17:52:00 on domain   4:     .28148 elapsed seconds
Timing for main: time 2016-02-05_17:52:00 on domain   2:    2.19243 elapsed seconds
Timing for main: time 2016-02-05_17:52:00 on domain   1:    7.02095 elapsed seconds
Timing for main: time 2016-02-05_17:52:13 on domain   3:     .25644 elapsed seconds
Timing for main: time 2016-02-05_17:52:26 on domain   3:     .24017 elapsed seconds
Timing for main: time 2016-02-05_17:52:40 on domain   3:     .24904 elapsed seconds
Timing for main: time 2016-02-05_17:52:20 on domain   4:     .29382 elapsed seconds
Timing for main: time 2016-02-05_17:52:40 on domain   4:     .28146 elapsed seconds
Timing for main: time 2016-02-05_17:52:40 on domain   2:    2.19708 elapsed seconds
Timing for main: time 2016-02-05_17:52:53 on domain   3:     .25579 elapsed seconds
Timing for main: time 2016-02-05_17:53:06 on domain   3:     .24098 elapsed seconds
Timing for main: time 2016-02-05_17:53:20 on domain   3:     .23979 elapsed seconds
Timing for main: time 2016-02-05_17:53:00 on domain   4:     .29489 elapsed seconds
Timing for main: time 2016-02-05_17:53:20 on domain   4:     .28184 elapsed seconds
Timing for main: time 2016-02-05_17:53:20 on domain   2:    2.18079 elapsed seconds
Timing for main: time 2016-02-05_17:53:33 on domain   3:     .25596 elapsed seconds
Timing for main: time 2016-02-05_17:53:46 on domain   3:     .23969 elapsed seconds
Timing for main: time 2016-02-05_17:54:00 on domain   3:     .23979 elapsed seconds
Timing for main: time 2016-02-05_17:53:40 on domain   4:     .28783 elapsed seconds
Timing for main: time 2016-02-05_17:54:00 on domain   4:     .28157 elapsed seconds
Timing for main: time 2016-02-05_17:54:00 on domain   2:    2.17860 elapsed seconds
Timing for main: time 2016-02-05_17:54:00 on domain   1:    7.01767 elapsed seconds
Timing for main: time 2016-02-05_17:54:13 on domain   3:     .25649 elapsed seconds
Timing for main: time 2016-02-05_17:54:26 on domain   3:     .23984 elapsed seconds
Timing for main: time 2016-02-05_17:54:40 on domain   3:     .24008 elapsed seconds
Timing for main: time 2016-02-05_17:54:20 on domain   4:     .29348 elapsed seconds
Timing for main: time 2016-02-05_17:54:40 on domain   4:     .28387 elapsed seconds
Timing for main: time 2016-02-05_17:54:40 on domain   2:    2.18878 elapsed seconds
Timing for main: time 2016-02-05_17:54:53 on domain   3:     .25631 elapsed seconds
Timing for main: time 2016-02-05_17:55:06 on domain   3:     .23937 elapsed seconds
Timing for main: time 2016-02-05_17:55:20 on domain   3:     .24006 elapsed seconds
Timing for main: time 2016-02-05_17:55:00 on domain   4:     .30443 elapsed seconds
Timing for main: time 2016-02-05_17:55:20 on domain   4:     .28234 elapsed seconds
Timing for main: time 2016-02-05_17:55:20 on domain   2:    2.18830 elapsed seconds
Timing for main: time 2016-02-05_17:55:33 on domain   3:     .25678 elapsed seconds
Timing for main: time 2016-02-05_17:55:46 on domain   3:     .24185 elapsed seconds
Timing for main: time 2016-02-05_17:56:00 on domain   3:     .24014 elapsed seconds
Timing for main: time 2016-02-05_17:55:40 on domain   4:     .29334 elapsed seconds
Timing for main: time 2016-02-05_17:56:00 on domain   4:     .28223 elapsed seconds
Timing for main: time 2016-02-05_17:56:00 on domain   2:    2.18101 elapsed seconds
Timing for main: time 2016-02-05_17:56:00 on domain   1:    7.01331 elapsed seconds
Timing for main: time 2016-02-05_17:56:13 on domain   3:     .25539 elapsed seconds
Timing for main: time 2016-02-05_17:56:26 on domain   3:     .24204 elapsed seconds
Timing for main: time 2016-02-05_17:56:40 on domain   3:     .24099 elapsed seconds
Timing for main: time 2016-02-05_17:56:20 on domain   4:     .29359 elapsed seconds
Timing for main: time 2016-02-05_17:56:40 on domain   4:     .28203 elapsed seconds
Timing for main: time 2016-02-05_17:56:40 on domain   2:    2.19388 elapsed seconds
Timing for main: time 2016-02-05_17:56:53 on domain   3:     .25622 elapsed seconds
Timing for main: time 2016-02-05_17:57:06 on domain   3:     .23917 elapsed seconds
Timing for main: time 2016-02-05_17:57:20 on domain   3:     .24024 elapsed seconds
Timing for main: time 2016-02-05_17:57:00 on domain   4:     .29368 elapsed seconds
Timing for main: time 2016-02-05_17:57:20 on domain   4:     .28185 elapsed seconds
Timing for main: time 2016-02-05_17:57:20 on domain   2:    2.19022 elapsed seconds
Timing for main: time 2016-02-05_17:57:33 on domain   3:     .25624 elapsed seconds
Timing for main: time 2016-02-05_17:57:46 on domain   3:     .25107 elapsed seconds
Timing for main: time 2016-02-05_17:58:00 on domain   3:     .24383 elapsed seconds
Timing for main: time 2016-02-05_17:57:40 on domain   4:     .29374 elapsed seconds
Timing for main: time 2016-02-05_17:58:00 on domain   4:     .28216 elapsed seconds
Timing for main: time 2016-02-05_17:58:00 on domain   2:    2.19527 elapsed seconds
Timing for main: time 2016-02-05_17:58:00 on domain   1:    7.03409 elapsed seconds
  photolysis_driver: called for domain  1
Timing for main: time 2016-02-05_17:58:13 on domain   3:     .25588 elapsed seconds
Timing for main: time 2016-02-05_17:58:26 on domain   3:     .24002 elapsed seconds
Timing for main: time 2016-02-05_17:58:40 on domain   3:     .24022 elapsed seconds
Timing for main: time 2016-02-05_17:58:20 on domain   4:     .29413 elapsed seconds
Timing for main: time 2016-02-05_17:58:40 on domain   4:     .28240 elapsed seconds
Timing for main: time 2016-02-05_17:58:40 on domain   2:    2.19003 elapsed seconds
Timing for main: time 2016-02-05_17:58:53 on domain   3:     .25828 elapsed seconds
Timing for main: time 2016-02-05_17:59:06 on domain   3:     .24151 elapsed seconds
Timing for main: time 2016-02-05_17:59:20 on domain   3:     .24030 elapsed seconds
Timing for main: time 2016-02-05_17:59:00 on domain   4:     .29349 elapsed seconds
Timing for main: time 2016-02-05_17:59:20 on domain   4:     .28530 elapsed seconds
Timing for main: time 2016-02-05_17:59:20 on domain   2:    2.18659 elapsed seconds
  photolysis_driver: called for domain  2
Timing for main: time 2016-02-05_17:59:33 on domain   3:     .25660 elapsed seconds
Timing for main: time 2016-02-05_17:59:46 on domain   3:     .24066 elapsed seconds
  photolysis_driver: called for domain  3
Timing for main: time 2016-02-05_18:00:00 on domain   3:    1.21002 elapsed seconds
Timing for Writing wrfout_d03_2016-02-05_18:00:00 for domain        3:    2.46844 elapsed seconds
Timing for main: time 2016-02-05_17:59:40 on domain   4:     .29689 elapsed seconds
  photolysis_driver: called for domain  4
Timing for main: time 2016-02-05_18:00:00 on domain   4:    1.42385 elapsed seconds
Timing for Writing wrfout_d04_2016-02-05_18:00:00 for domain        4:    2.74650 elapsed seconds
Timing for main: time 2016-02-05_18:00:00 on domain   2:   10.72388 elapsed seconds
Timing for Writing wrfout_d02_2016-02-05_18:00:00 for domain        2:    3.20943 elapsed seconds
Timing for main: time 2016-02-05_18:00:00 on domain   1:   19.69681 elapsed seconds
Timing for Writing wrfout_d01_2016-02-05_18:00:00 for domain        1:    2.30157 elapsed seconds
 d01 2016-02-05_18:00:00 wrf: SUCCESS COMPLETE WRF
