taskid: 0 hostname: p10a51.pbm.ihost.com
  Ntasks in X  10 , ntasks in Y  16
 Setting blank km_opt entries to domain #1 values.
  --> The km_opt entry in the namelist.input is now max_domains.
 Setting blank diff_opt entries to domain #1 values.
  --> The diff_opt entry in the namelist.input is now max_domains.
 --- WARNING: traj_opt is zero, but num_traj is not zero; setting num_traj to zero.
 --- NOTE: hypsometric_opt is 2, setting adjust_heights = F
 --- NOTE: sst_update is 0, setting io_form_auxinput4 = 0 and auxinput4_interval = 0 for all domains
 --- NOTE: sst_update is 0, setting io_form_auxinput4 = 0 and auxinput4_interval = 0 for all domains
 --- NOTE: sst_update is 0, setting io_form_auxinput4 = 0 and auxinput4_interval = 0 for all domains
 --- NOTE: sst_update is 0, setting io_form_auxinput4 = 0 and auxinput4_interval = 0 for all domains
 --- NOTE: grid_fdda is 0 for domain      1, setting gfdda interval and ending time to 0 for that domain.
 --- NOTE: both grid_sfdda and pxlsm_soil_nudge are 0 for domain      1, setting sgfdda interval and ending time to 0 for that domain.
 --- NOTE: obs_nudge_opt is 0 for domain      1, setting obs nudging interval and ending time to 0 for that domain.
 --- NOTE: grid_fdda is 0 for domain      2, setting gfdda interval and ending time to 0 for that domain.
 --- NOTE: both grid_sfdda and pxlsm_soil_nudge are 0 for domain      2, setting sgfdda interval and ending time to 0 for that domain.
 --- NOTE: obs_nudge_opt is 0 for domain      2, setting obs nudging interval and ending time to 0 for that domain.
 --- NOTE: grid_fdda is 0 for domain      3, setting gfdda interval and ending time to 0 for that domain.
 --- NOTE: both grid_sfdda and pxlsm_soil_nudge are 0 for domain      3, setting sgfdda interval and ending time to 0 for that domain.
 --- NOTE: obs_nudge_opt is 0 for domain      3, setting obs nudging interval and ending time to 0 for that domain.
 --- NOTE: grid_fdda is 0 for domain      4, setting gfdda interval and ending time to 0 for that domain.
 --- NOTE: both grid_sfdda and pxlsm_soil_nudge are 0 for domain      4, setting sgfdda interval and ending time to 0 for that domain.
 --- NOTE: obs_nudge_opt is 0 for domain      4, setting obs nudging interval and ending time to 0 for that domain.
 bl_pbl_physics /= 4, implies mfshconv must be 0, resetting
 --- NOTE: num_soil_layers has been set to      4
 WRF V3.6 MODEL
  *************************************
  Parent domain
  ids,ide,jds,jde  1 271 1 181
  ims,ime,jms,jme  -4 34 -4 19
  ips,ipe,jps,jpe  1 27 1 12
  *************************************
 DYNAMICS OPTION: Eulerian Mass Coordinate
    alloc_space_field: domain  1 ,  95252168  bytes allocated
   med_initialdata_input: calling input_input
Timing for processing wrfinput file (stream 0) for domain        1:    4.91416 elapsed seconds
 INPUT LandUse = "USGS"
  LANDUSE TYPE = "USGS" FOUND 33  CATEGORIES 2  SEASONS WATER CATEGORY =  16  SNOW CATEGORY =  24
 INITIALIZE THREE Noah LSM RELATED TABLES
  LANDUSE TYPE = USGS FOUND 27  CATEGORIES
  INPUT SOIL TEXTURE CLASSIFICATION = STAS
  SOIL TEXTURE CLASSIFICATION = STAS FOUND 19  CATEGORIES
 *********************************************************************
 *             PROGRAM:WRF/CHEM V3.6 MODEL
 *                                                                   *
 *    PLEASE REPORT ANY BUGS TO WRF/CHEM HELP at                     *
 *                                                                   *
 *              wrfchemhelp.gsd@noaa.gov                             *
 *                                                                   *
 *********************************************************************
 WARNING: dust option 1 currently works only with the GOCART aerosol option.
 WARNING: sea salt option 1 currently works only with the GOCART aerosol option.
  *************************************
  Nesting domain
  ids,ide,jds,jde  1 361 1 253
  ims,ime,jms,jme  -4 48 -4 27
  ips,ipe,jps,jpe  1 36 1 16
  INTERMEDIATE domain
  ids,ide,jds,jde  74 199 47 136
  ims,ime,jms,jme  69 97 42 63
  ips,ipe,jps,jpe  72 87 45 53
  *************************************
 d01 2016-02-05_12:00:00  alloc_space_field: domain  2 ,  168236264  bytes allocated
 d01 2016-02-05_12:00:00  alloc_space_field: domain  2 ,  8036248  bytes allocated
 d01 2016-02-05_12:00:00 *** Initializing nest domain # 2 from an input file. ***
 d01 2016-02-05_12:00:00 med_initialdata_input: calling input_input
Timing for processing wrfinput file (stream 0) for domain        2:    8.90397 elapsed seconds
 INPUT LandUse = "USGS"
  LANDUSE TYPE = "USGS" FOUND 33  CATEGORIES 2  SEASONS WATER CATEGORY =  16  SNOW CATEGORY =  24
 INITIALIZE THREE Noah LSM RELATED TABLES
  LANDUSE TYPE = USGS FOUND 27  CATEGORIES
  INPUT SOIL TEXTURE CLASSIFICATION = STAS
  SOIL TEXTURE CLASSIFICATION = STAS FOUND 19  CATEGORIES
 *********************************************************************
 *             PROGRAM:WRF/CHEM V3.6 MODEL
 *                                                                   *
 *    PLEASE REPORT ANY BUGS TO WRF/CHEM HELP at                     *
 *                                                                   *
 *              wrfchemhelp.gsd@noaa.gov                             *
 *                                                                   *
 *********************************************************************
 WARNING: dust option 1 currently works only with the GOCART aerosol option.
 WARNING: sea salt option 1 currently works only with the GOCART aerosol option.
 INPUT LandUse = "USGS"
  LANDUSE TYPE = "USGS" FOUND 33  CATEGORIES 2  SEASONS WATER CATEGORY =  16  SNOW CATEGORY =  24
 INITIALIZE THREE Noah LSM RELATED TABLES
  LANDUSE TYPE = USGS FOUND 27  CATEGORIES
  INPUT SOIL TEXTURE CLASSIFICATION = STAS
  SOIL TEXTURE CLASSIFICATION = STAS FOUND 19  CATEGORIES
 *********************************************************************
 *             PROGRAM:WRF/CHEM V3.6 MODEL
 *                                                                   *
 *    PLEASE REPORT ANY BUGS TO WRF/CHEM HELP at                     *
 *                                                                   *
 *              wrfchemhelp.gsd@noaa.gov                             *
 *                                                                   *
 *********************************************************************
 WARNING: dust option 1 currently works only with the GOCART aerosol option.
 WARNING: sea salt option 1 currently works only with the GOCART aerosol option.
 INPUT LandUse = "USGS"
  LANDUSE TYPE = "USGS" FOUND 33  CATEGORIES 2  SEASONS WATER CATEGORY =  16  SNOW CATEGORY =  24
 INITIALIZE THREE Noah LSM RELATED TABLES
  LANDUSE TYPE = USGS FOUND 27  CATEGORIES
  INPUT SOIL TEXTURE CLASSIFICATION = STAS
  SOIL TEXTURE CLASSIFICATION = STAS FOUND 19  CATEGORIES
 *********************************************************************
 *             PROGRAM:WRF/CHEM V3.6 MODEL
 *                                                                   *
 *    PLEASE REPORT ANY BUGS TO WRF/CHEM HELP at                     *
 *                                                                   *
 *              wrfchemhelp.gsd@noaa.gov                             *
 *                                                                   *
 *********************************************************************
 WARNING: dust option 1 currently works only with the GOCART aerosol option.
 WARNING: sea salt option 1 currently works only with the GOCART aerosol option.
Timing for Writing wrfout_d01_2016-02-05_12:00:00 for domain        1:    1.85888 elapsed seconds
  mediation_integrate: med_read_wrf_chem_emissions: Open file wrfchemi_12z_d01
  HOURLY EMISSIONS UPDATE TIME         .0        .0
 mediation_integrate: med_read_wrf_chem_emissions: Read emissions for time 2016-02-05_12:00:00
 **WARNING** Time in input file not being checked **WARNING**
Timing for processing lateral boundary for domain        1:    4.05789 elapsed seconds
  Tile Strategy is not specified. Assuming 1D-Y
 WRF TILE   1 IS      1 IE     27 JS      1 JE     12
 WRF NUMBER OF TILES =   1
  photolysis_driver: called for domain  1
  *************************************
  Nesting domain
  ids,ide,jds,jde  1 307 1 241
  ims,ime,jms,jme  -4 42 -4 27
  ips,ipe,jps,jpe  1 31 1 15
  INTERMEDIATE domain
  ids,ide,jds,jde  124 231 35 120
  ims,ime,jms,jme  119 145 30 51
  ips,ipe,jps,jpe  122 135 33 41
  *************************************
 d02 2016-02-05_12:00:00  alloc_space_field: domain  3 ,  149693108  bytes allocated
 d02 2016-02-05_12:00:00  alloc_space_field: domain  3 ,  7482024  bytes allocated
 d02 2016-02-05_12:00:00 *** Initializing nest domain # 3 from an input file. ***
 d02 2016-02-05_12:00:00 med_initialdata_input: calling input_input
Timing for processing wrfinput file (stream 0) for domain        3:    7.41036 elapsed seconds
 INPUT LandUse = "USGS"
  LANDUSE TYPE = "USGS" FOUND 33  CATEGORIES 2  SEASONS WATER CATEGORY =  16  SNOW CATEGORY =  24
 INITIALIZE THREE Noah LSM RELATED TABLES
  LANDUSE TYPE = USGS FOUND 27  CATEGORIES
  INPUT SOIL TEXTURE CLASSIFICATION = STAS
  SOIL TEXTURE CLASSIFICATION = STAS FOUND 19  CATEGORIES
 *********************************************************************
 *             PROGRAM:WRF/CHEM V3.6 MODEL
 *                                                                   *
 *    PLEASE REPORT ANY BUGS TO WRF/CHEM HELP at                     *
 *                                                                   *
 *              wrfchemhelp.gsd@noaa.gov                             *
 *                                                                   *
 *********************************************************************
 WARNING: dust option 1 currently works only with the GOCART aerosol option.
 WARNING: sea salt option 1 currently works only with the GOCART aerosol option.
 INPUT LandUse = "USGS"
  LANDUSE TYPE = "USGS" FOUND 33  CATEGORIES 2  SEASONS WATER CATEGORY =  16  SNOW CATEGORY =  24
 INITIALIZE THREE Noah LSM RELATED TABLES
  LANDUSE TYPE = USGS FOUND 27  CATEGORIES
  INPUT SOIL TEXTURE CLASSIFICATION = STAS
  SOIL TEXTURE CLASSIFICATION = STAS FOUND 19  CATEGORIES
 *********************************************************************
 *             PROGRAM:WRF/CHEM V3.6 MODEL
 *                                                                   *
 *    PLEASE REPORT ANY BUGS TO WRF/CHEM HELP at                     *
 *                                                                   *
 *              wrfchemhelp.gsd@noaa.gov                             *
 *                                                                   *
 *********************************************************************
 WARNING: dust option 1 currently works only with the GOCART aerosol option.
 WARNING: sea salt option 1 currently works only with the GOCART aerosol option.
 INPUT LandUse = "USGS"
  LANDUSE TYPE = "USGS" FOUND 33  CATEGORIES 2  SEASONS WATER CATEGORY =  16  SNOW CATEGORY =  24
 INITIALIZE THREE Noah LSM RELATED TABLES
  LANDUSE TYPE = USGS FOUND 27  CATEGORIES
  INPUT SOIL TEXTURE CLASSIFICATION = STAS
  SOIL TEXTURE CLASSIFICATION = STAS FOUND 19  CATEGORIES
 *********************************************************************
 *             PROGRAM:WRF/CHEM V3.6 MODEL
 *                                                                   *
 *    PLEASE REPORT ANY BUGS TO WRF/CHEM HELP at                     *
 *                                                                   *
 *              wrfchemhelp.gsd@noaa.gov                             *
 *                                                                   *
 *********************************************************************
 WARNING: dust option 1 currently works only with the GOCART aerosol option.
 WARNING: sea salt option 1 currently works only with the GOCART aerosol option.
  *************************************
  Nesting domain
  ids,ide,jds,jde  1 217 1 388
  ims,ime,jms,jme  -4 33 -4 36
  ips,ipe,jps,jpe  1 22 1 25
  INTERMEDIATE domain
  ids,ide,jds,jde  225 302 83 217
  ims,ime,jms,jme  220 243 78 102
  ips,ipe,jps,jpe  223 233 81 92
  *************************************
 d02 2016-02-05_12:00:00  alloc_space_field: domain  4 ,  154732412  bytes allocated
 d02 2016-02-05_12:00:00  alloc_space_field: domain  4 ,  7557600  bytes allocated
 d02 2016-02-05_12:00:00 *** Initializing nest domain # 4 from an input file. ***
 d02 2016-02-05_12:00:00 med_initialdata_input: calling input_input
Timing for processing wrfinput file (stream 0) for domain        4:    9.37137 elapsed seconds
 INPUT LandUse = "USGS"
  LANDUSE TYPE = "USGS" FOUND 33  CATEGORIES 2  SEASONS WATER CATEGORY =  16  SNOW CATEGORY =  24
 INITIALIZE THREE Noah LSM RELATED TABLES
  LANDUSE TYPE = USGS FOUND 27  CATEGORIES
  INPUT SOIL TEXTURE CLASSIFICATION = STAS
  SOIL TEXTURE CLASSIFICATION = STAS FOUND 19  CATEGORIES
 *********************************************************************
 *             PROGRAM:WRF/CHEM V3.6 MODEL
 *                                                                   *
 *    PLEASE REPORT ANY BUGS TO WRF/CHEM HELP at                     *
 *                                                                   *
 *              wrfchemhelp.gsd@noaa.gov                             *
 *                                                                   *
 *********************************************************************
 WARNING: dust option 1 currently works only with the GOCART aerosol option.
 WARNING: sea salt option 1 currently works only with the GOCART aerosol option.
 INPUT LandUse = "USGS"
  LANDUSE TYPE = "USGS" FOUND 33  CATEGORIES 2  SEASONS WATER CATEGORY =  16  SNOW CATEGORY =  24
 INITIALIZE THREE Noah LSM RELATED TABLES
  LANDUSE TYPE = USGS FOUND 27  CATEGORIES
  INPUT SOIL TEXTURE CLASSIFICATION = STAS
  SOIL TEXTURE CLASSIFICATION = STAS FOUND 19  CATEGORIES
 *********************************************************************
 *             PROGRAM:WRF/CHEM V3.6 MODEL
 *                                                                   *
 *    PLEASE REPORT ANY BUGS TO WRF/CHEM HELP at                     *
 *                                                                   *
 *              wrfchemhelp.gsd@noaa.gov                             *
 *                                                                   *
 *********************************************************************
 WARNING: dust option 1 currently works only with the GOCART aerosol option.
 WARNING: sea salt option 1 currently works only with the GOCART aerosol option.
 INPUT LandUse = "USGS"
  LANDUSE TYPE = "USGS" FOUND 33  CATEGORIES 2  SEASONS WATER CATEGORY =  16  SNOW CATEGORY =  24
 INITIALIZE THREE Noah LSM RELATED TABLES
  LANDUSE TYPE = USGS FOUND 27  CATEGORIES
  INPUT SOIL TEXTURE CLASSIFICATION = STAS
  SOIL TEXTURE CLASSIFICATION = STAS FOUND 19  CATEGORIES
 *********************************************************************
 *             PROGRAM:WRF/CHEM V3.6 MODEL
 *                                                                   *
 *    PLEASE REPORT ANY BUGS TO WRF/CHEM HELP at                     *
 *                                                                   *
 *              wrfchemhelp.gsd@noaa.gov                             *
 *                                                                   *
 *********************************************************************
 WARNING: dust option 1 currently works only with the GOCART aerosol option.
 WARNING: sea salt option 1 currently works only with the GOCART aerosol option.
Timing for Writing wrfout_d02_2016-02-05_12:00:00 for domain        2:    2.75952 elapsed seconds
  mediation_integrate: med_read_wrf_chem_emissions: Open file wrfchemi_12z_d02
  HOURLY EMISSIONS UPDATE TIME         .0        .0
 mediation_integrate: med_read_wrf_chem_emissions: Read emissions for time 2016-02-05_12:00:00
 **WARNING** Time in input file not being checked **WARNING**
  Tile Strategy is not specified. Assuming 1D-Y
 WRF TILE   1 IS      1 IE     36 JS      1 JE     16
 WRF NUMBER OF TILES =   1
  photolysis_driver: called for domain  2
Timing for Writing wrfout_d03_2016-02-05_12:00:00 for domain        3:    2.33699 elapsed seconds
  mediation_integrate: med_read_wrf_chem_emissions: Open file wrfchemi_12z_d03
  HOURLY EMISSIONS UPDATE TIME         .0        .0
 mediation_integrate: med_read_wrf_chem_emissions: Read emissions for time 2016-02-05_12:00:00
 **WARNING** Time in input file not being checked **WARNING**
  Tile Strategy is not specified. Assuming 1D-Y
 WRF TILE   1 IS      1 IE     31 JS      1 JE     15
 WRF NUMBER OF TILES =   1
  photolysis_driver: called for domain  3
Timing for main: time 2016-02-05_12:00:13 on domain   3:    5.59285 elapsed seconds
Timing for main: time 2016-02-05_12:00:26 on domain   3:     .26083 elapsed seconds
Timing for main: time 2016-02-05_12:00:40 on domain   3:     .29197 elapsed seconds
Timing for Writing wrfout_d04_2016-02-05_12:00:00 for domain        4:    2.56235 elapsed seconds
  mediation_integrate: med_read_wrf_chem_emissions: Open file wrfchemi_12z_d04
  HOURLY EMISSIONS UPDATE TIME         .0        .0
 mediation_integrate: med_read_wrf_chem_emissions: Read emissions for time 2016-02-05_12:00:00
 **WARNING** Time in input file not being checked **WARNING**
  Tile Strategy is not specified. Assuming 1D-Y
 WRF TILE   1 IS      1 IE     22 JS      1 JE     25
 WRF NUMBER OF TILES =   1
  photolysis_driver: called for domain  4
Timing for main: time 2016-02-05_12:00:20 on domain   4:    6.08663 elapsed seconds
Timing for main: time 2016-02-05_12:00:40 on domain   4:     .28792 elapsed seconds
Timing for main: time 2016-02-05_12:00:40 on domain   2:   41.25890 elapsed seconds
Timing for main: time 2016-02-05_12:00:53 on domain   3:     .30958 elapsed seconds
Timing for main: time 2016-02-05_12:01:06 on domain   3:     .29084 elapsed seconds
Timing for main: time 2016-02-05_12:01:20 on domain   3:     .29155 elapsed seconds
Timing for main: time 2016-02-05_12:01:00 on domain   4:     .34606 elapsed seconds
Timing for main: time 2016-02-05_12:01:20 on domain   4:     .33938 elapsed seconds
Timing for main: time 2016-02-05_12:01:20 on domain   2:    2.51939 elapsed seconds
Timing for main: time 2016-02-05_12:01:33 on domain   3:     .30951 elapsed seconds
Timing for main: time 2016-02-05_12:01:46 on domain   3:     .29249 elapsed seconds
Timing for main: time 2016-02-05_12:02:00 on domain   3:     .29435 elapsed seconds
Timing for main: time 2016-02-05_12:01:40 on domain   4:     .34260 elapsed seconds
Timing for main: time 2016-02-05_12:02:00 on domain   4:     .33782 elapsed seconds
Timing for main: time 2016-02-05_12:02:00 on domain   2:    2.56897 elapsed seconds
Timing for main: time 2016-02-05_12:02:00 on domain   1:   68.23291 elapsed seconds
Timing for main: time 2016-02-05_12:02:13 on domain   3:     .30627 elapsed seconds
Timing for main: time 2016-02-05_12:02:26 on domain   3:     .29179 elapsed seconds
Timing for main: time 2016-02-05_12:02:40 on domain   3:     .29294 elapsed seconds
Timing for main: time 2016-02-05_12:02:20 on domain   4:     .34423 elapsed seconds
Timing for main: time 2016-02-05_12:02:40 on domain   4:     .33893 elapsed seconds
Timing for main: time 2016-02-05_12:02:40 on domain   2:    2.58552 elapsed seconds
Timing for main: time 2016-02-05_12:02:53 on domain   3:     .30986 elapsed seconds
Timing for main: time 2016-02-05_12:03:06 on domain   3:     .29292 elapsed seconds
Timing for main: time 2016-02-05_12:03:20 on domain   3:     .29173 elapsed seconds
Timing for main: time 2016-02-05_12:03:00 on domain   4:     .34104 elapsed seconds
Timing for main: time 2016-02-05_12:03:20 on domain   4:     .34372 elapsed seconds
Timing for main: time 2016-02-05_12:03:20 on domain   2:    2.57488 elapsed seconds
Timing for main: time 2016-02-05_12:03:33 on domain   3:     .31286 elapsed seconds
Timing for main: time 2016-02-05_12:03:46 on domain   3:     .28902 elapsed seconds
Timing for main: time 2016-02-05_12:04:00 on domain   3:     .29489 elapsed seconds
Timing for main: time 2016-02-05_12:03:40 on domain   4:     .34188 elapsed seconds
Timing for main: time 2016-02-05_12:04:00 on domain   4:     .33863 elapsed seconds
Timing for main: time 2016-02-05_12:04:00 on domain   2:    2.57165 elapsed seconds
Timing for main: time 2016-02-05_12:04:00 on domain   1:    8.21936 elapsed seconds
Timing for main: time 2016-02-05_12:04:13 on domain   3:     .32282 elapsed seconds
Timing for main: time 2016-02-05_12:04:26 on domain   3:     .30459 elapsed seconds
Timing for main: time 2016-02-05_12:04:40 on domain   3:     .29398 elapsed seconds
Timing for main: time 2016-02-05_12:04:20 on domain   4:     .34348 elapsed seconds
Timing for main: time 2016-02-05_12:04:40 on domain   4:     .33864 elapsed seconds
Timing for main: time 2016-02-05_12:04:40 on domain   2:    2.61129 elapsed seconds
Timing for main: time 2016-02-05_12:04:53 on domain   3:     .31223 elapsed seconds
Timing for main: time 2016-02-05_12:05:06 on domain   3:     .30477 elapsed seconds
Timing for main: time 2016-02-05_12:05:20 on domain   3:     .29150 elapsed seconds
Timing for main: time 2016-02-05_12:05:00 on domain   4:     .35507 elapsed seconds
Timing for main: time 2016-02-05_12:05:20 on domain   4:     .33790 elapsed seconds
Timing for main: time 2016-02-05_12:05:20 on domain   2:    2.61436 elapsed seconds
Timing for main: time 2016-02-05_12:05:33 on domain   3:     .31167 elapsed seconds
Timing for main: time 2016-02-05_12:05:46 on domain   3:     .29183 elapsed seconds
Timing for main: time 2016-02-05_12:06:00 on domain   3:     .29175 elapsed seconds
Timing for main: time 2016-02-05_12:05:40 on domain   4:     .34521 elapsed seconds
Timing for main: time 2016-02-05_12:06:00 on domain   4:     .33758 elapsed seconds
Timing for main: time 2016-02-05_12:06:00 on domain   2:    2.58479 elapsed seconds
Timing for main: time 2016-02-05_12:06:00 on domain   1:    8.34099 elapsed seconds
Timing for main: time 2016-02-05_12:06:13 on domain   3:     .31388 elapsed seconds
Timing for main: time 2016-02-05_12:06:26 on domain   3:     .29172 elapsed seconds
Timing for main: time 2016-02-05_12:06:40 on domain   3:     .29324 elapsed seconds
Timing for main: time 2016-02-05_12:06:20 on domain   4:     .34192 elapsed seconds
Timing for main: time 2016-02-05_12:06:40 on domain   4:     .33825 elapsed seconds
Timing for main: time 2016-02-05_12:06:40 on domain   2:    2.58343 elapsed seconds
Timing for main: time 2016-02-05_12:06:53 on domain   3:     .31255 elapsed seconds
Timing for main: time 2016-02-05_12:07:06 on domain   3:     .29149 elapsed seconds
Timing for main: time 2016-02-05_12:07:20 on domain   3:     .29064 elapsed seconds
Timing for main: time 2016-02-05_12:07:00 on domain   4:     .34449 elapsed seconds
Timing for main: time 2016-02-05_12:07:20 on domain   4:     .33604 elapsed seconds
Timing for main: time 2016-02-05_12:07:20 on domain   2:    2.57154 elapsed seconds
Timing for main: time 2016-02-05_12:07:33 on domain   3:     .31198 elapsed seconds
Timing for main: time 2016-02-05_12:07:46 on domain   3:     .29081 elapsed seconds
Timing for main: time 2016-02-05_12:08:00 on domain   3:     .29120 elapsed seconds
Timing for main: time 2016-02-05_12:07:40 on domain   4:     .34032 elapsed seconds
Timing for main: time 2016-02-05_12:08:00 on domain   4:     .33863 elapsed seconds
Timing for main: time 2016-02-05_12:08:00 on domain   2:    2.57150 elapsed seconds
Timing for main: time 2016-02-05_12:08:00 on domain   1:    8.24814 elapsed seconds
Timing for main: time 2016-02-05_12:08:13 on domain   3:     .31021 elapsed seconds
Timing for main: time 2016-02-05_12:08:26 on domain   3:     .29211 elapsed seconds
Timing for main: time 2016-02-05_12:08:40 on domain   3:     .29272 elapsed seconds
Timing for main: time 2016-02-05_12:08:20 on domain   4:     .34156 elapsed seconds
Timing for main: time 2016-02-05_12:08:40 on domain   4:     .33932 elapsed seconds
Timing for main: time 2016-02-05_12:08:40 on domain   2:    2.58185 elapsed seconds
Timing for main: time 2016-02-05_12:08:53 on domain   3:     .35212 elapsed seconds
Timing for main: time 2016-02-05_12:09:06 on domain   3:     .30156 elapsed seconds
Timing for main: time 2016-02-05_12:09:20 on domain   3:     .30030 elapsed seconds
Timing for main: time 2016-02-05_12:09:00 on domain   4:     .34221 elapsed seconds
Timing for main: time 2016-02-05_12:09:20 on domain   4:     .33966 elapsed seconds
Timing for main: time 2016-02-05_12:09:20 on domain   2:    2.63243 elapsed seconds
Timing for main: time 2016-02-05_12:09:33 on domain   3:     .31221 elapsed seconds
Timing for main: time 2016-02-05_12:09:46 on domain   3:     .29120 elapsed seconds
Timing for main: time 2016-02-05_12:10:00 on domain   3:     .29350 elapsed seconds
Timing for main: time 2016-02-05_12:09:40 on domain   4:     .34616 elapsed seconds
Timing for main: time 2016-02-05_12:10:00 on domain   4:     .35617 elapsed seconds
Timing for main: time 2016-02-05_12:10:00 on domain   2:    2.59793 elapsed seconds
Timing for main: time 2016-02-05_12:10:00 on domain   1:    8.34188 elapsed seconds
Timing for main: time 2016-02-05_12:10:13 on domain   3:     .32270 elapsed seconds
Timing for main: time 2016-02-05_12:10:26 on domain   3:     .29352 elapsed seconds
Timing for main: time 2016-02-05_12:10:40 on domain   3:     .29050 elapsed seconds
Timing for main: time 2016-02-05_12:10:20 on domain   4:     .34237 elapsed seconds
Timing for main: time 2016-02-05_12:10:40 on domain   4:     .33986 elapsed seconds
Timing for main: time 2016-02-05_12:10:40 on domain   2:    2.60982 elapsed seconds
Timing for main: time 2016-02-05_12:10:53 on domain   3:     .31015 elapsed seconds
Timing for main: time 2016-02-05_12:11:06 on domain   3:     .29247 elapsed seconds
Timing for main: time 2016-02-05_12:11:20 on domain   3:     .29201 elapsed seconds
Timing for main: time 2016-02-05_12:11:00 on domain   4:     .34185 elapsed seconds
Timing for main: time 2016-02-05_12:11:20 on domain   4:     .34016 elapsed seconds
Timing for main: time 2016-02-05_12:11:20 on domain   2:    2.57682 elapsed seconds
Timing for main: time 2016-02-05_12:11:33 on domain   3:     .31167 elapsed seconds
Timing for main: time 2016-02-05_12:11:46 on domain   3:     .29347 elapsed seconds
Timing for main: time 2016-02-05_12:12:00 on domain   3:     .29285 elapsed seconds
Timing for main: time 2016-02-05_12:11:40 on domain   4:     .34299 elapsed seconds
Timing for main: time 2016-02-05_12:12:00 on domain   4:     .34253 elapsed seconds
Timing for main: time 2016-02-05_12:12:00 on domain   2:    2.58025 elapsed seconds
Timing for main: time 2016-02-05_12:12:00 on domain   1:    8.29862 elapsed seconds
Timing for main: time 2016-02-05_12:12:13 on domain   3:     .31098 elapsed seconds
Timing for main: time 2016-02-05_12:12:26 on domain   3:     .29322 elapsed seconds
Timing for main: time 2016-02-05_12:12:40 on domain   3:     .29276 elapsed seconds
Timing for main: time 2016-02-05_12:12:20 on domain   4:     .34309 elapsed seconds
Timing for main: time 2016-02-05_12:12:40 on domain   4:     .34163 elapsed seconds
Timing for main: time 2016-02-05_12:12:40 on domain   2:    2.58606 elapsed seconds
Timing for main: time 2016-02-05_12:12:53 on domain   3:     .35786 elapsed seconds
Timing for main: time 2016-02-05_12:13:06 on domain   3:     .34451 elapsed seconds
Timing for main: time 2016-02-05_12:13:20 on domain   3:     .29335 elapsed seconds
Timing for main: time 2016-02-05_12:13:00 on domain   4:     .34253 elapsed seconds
Timing for main: time 2016-02-05_12:13:20 on domain   4:     .34009 elapsed seconds
Timing for main: time 2016-02-05_12:13:20 on domain   2:    2.67400 elapsed seconds
Timing for main: time 2016-02-05_12:13:33 on domain   3:     .31136 elapsed seconds
Timing for main: time 2016-02-05_12:13:46 on domain   3:     .29139 elapsed seconds
Timing for main: time 2016-02-05_12:14:00 on domain   3:     .29356 elapsed seconds
Timing for main: time 2016-02-05_12:13:40 on domain   4:     .34303 elapsed seconds
Timing for main: time 2016-02-05_12:14:00 on domain   4:     .34235 elapsed seconds
Timing for main: time 2016-02-05_12:14:00 on domain   2:    2.58151 elapsed seconds
Timing for main: time 2016-02-05_12:14:00 on domain   1:    8.36724 elapsed seconds
Timing for main: time 2016-02-05_12:14:13 on domain   3:     .31068 elapsed seconds
Timing for main: time 2016-02-05_12:14:26 on domain   3:     .29257 elapsed seconds
Timing for main: time 2016-02-05_12:14:40 on domain   3:     .29272 elapsed seconds
Timing for main: time 2016-02-05_12:14:20 on domain   4:     .34505 elapsed seconds
Timing for main: time 2016-02-05_12:14:40 on domain   4:     .33899 elapsed seconds
Timing for main: time 2016-02-05_12:14:40 on domain   2:    2.58610 elapsed seconds
Timing for main: time 2016-02-05_12:14:53 on domain   3:     .31060 elapsed seconds
Timing for main: time 2016-02-05_12:15:06 on domain   3:     .29355 elapsed seconds
Timing for main: time 2016-02-05_12:15:20 on domain   3:     .30417 elapsed seconds
Timing for main: time 2016-02-05_12:15:00 on domain   4:     .36522 elapsed seconds
Timing for main: time 2016-02-05_12:15:20 on domain   4:     .34081 elapsed seconds
Timing for main: time 2016-02-05_12:15:20 on domain   2:    2.61381 elapsed seconds
Timing for main: time 2016-02-05_12:15:33 on domain   3:     .31107 elapsed seconds
Timing for main: time 2016-02-05_12:15:46 on domain   3:     .29175 elapsed seconds
Timing for main: time 2016-02-05_12:16:00 on domain   3:     .29333 elapsed seconds
Timing for main: time 2016-02-05_12:15:40 on domain   4:     .34281 elapsed seconds
Timing for main: time 2016-02-05_12:16:00 on domain   4:     .34100 elapsed seconds
Timing for main: time 2016-02-05_12:16:00 on domain   2:    2.59404 elapsed seconds
Timing for main: time 2016-02-05_12:16:00 on domain   1:    8.31747 elapsed seconds
Timing for main: time 2016-02-05_12:16:13 on domain   3:     .31101 elapsed seconds
Timing for main: time 2016-02-05_12:16:26 on domain   3:     .29136 elapsed seconds
Timing for main: time 2016-02-05_12:16:40 on domain   3:     .29410 elapsed seconds
Timing for main: time 2016-02-05_12:16:20 on domain   4:     .34306 elapsed seconds
Timing for main: time 2016-02-05_12:16:40 on domain   4:     .34194 elapsed seconds
Timing for main: time 2016-02-05_12:16:40 on domain   2:    2.58850 elapsed seconds
Timing for main: time 2016-02-05_12:16:53 on domain   3:     .30560 elapsed seconds
Timing for main: time 2016-02-05_12:17:06 on domain   3:     .29099 elapsed seconds
Timing for main: time 2016-02-05_12:17:20 on domain   3:     .29518 elapsed seconds
Timing for main: time 2016-02-05_12:17:00 on domain   4:     .34154 elapsed seconds
Timing for main: time 2016-02-05_12:17:20 on domain   4:     .34066 elapsed seconds
Timing for main: time 2016-02-05_12:17:20 on domain   2:    2.57529 elapsed seconds
Timing for main: time 2016-02-05_12:17:33 on domain   3:     .31125 elapsed seconds
Timing for main: time 2016-02-05_12:17:46 on domain   3:     .29265 elapsed seconds
Timing for main: time 2016-02-05_12:18:00 on domain   3:     .29270 elapsed seconds
Timing for main: time 2016-02-05_12:17:40 on domain   4:     .34217 elapsed seconds
Timing for main: time 2016-02-05_12:18:00 on domain   4:     .34095 elapsed seconds
Timing for main: time 2016-02-05_12:18:00 on domain   2:    2.57881 elapsed seconds
Timing for main: time 2016-02-05_12:18:00 on domain   1:    8.27384 elapsed seconds
Timing for main: time 2016-02-05_12:18:13 on domain   3:     .31137 elapsed seconds
Timing for main: time 2016-02-05_12:18:26 on domain   3:     .29280 elapsed seconds
Timing for main: time 2016-02-05_12:18:40 on domain   3:     .29142 elapsed seconds
Timing for main: time 2016-02-05_12:18:20 on domain   4:     .34305 elapsed seconds
Timing for main: time 2016-02-05_12:18:40 on domain   4:     .34062 elapsed seconds
Timing for main: time 2016-02-05_12:18:40 on domain   2:    2.58678 elapsed seconds
Timing for main: time 2016-02-05_12:18:53 on domain   3:     .31006 elapsed seconds
Timing for main: time 2016-02-05_12:19:06 on domain   3:     .29302 elapsed seconds
Timing for main: time 2016-02-05_12:19:20 on domain   3:     .29321 elapsed seconds
Timing for main: time 2016-02-05_12:19:00 on domain   4:     .34288 elapsed seconds
Timing for main: time 2016-02-05_12:19:20 on domain   4:     .40025 elapsed seconds
Timing for main: time 2016-02-05_12:19:20 on domain   2:    2.63803 elapsed seconds
Timing for main: time 2016-02-05_12:19:33 on domain   3:     .31125 elapsed seconds
Timing for main: time 2016-02-05_12:19:46 on domain   3:     .29252 elapsed seconds
Timing for main: time 2016-02-05_12:20:00 on domain   3:     .29366 elapsed seconds
Timing for main: time 2016-02-05_12:19:40 on domain   4:     .34314 elapsed seconds
Timing for main: time 2016-02-05_12:20:00 on domain   4:     .35460 elapsed seconds
Timing for main: time 2016-02-05_12:20:00 on domain   2:    2.63857 elapsed seconds
Timing for main: time 2016-02-05_12:20:00 on domain   1:    8.38657 elapsed seconds
Timing for main: time 2016-02-05_12:20:13 on domain   3:     .30946 elapsed seconds
Timing for main: time 2016-02-05_12:20:26 on domain   3:     .30597 elapsed seconds
Timing for main: time 2016-02-05_12:20:40 on domain   3:     .29227 elapsed seconds
Timing for main: time 2016-02-05_12:20:20 on domain   4:     .34428 elapsed seconds
Timing for main: time 2016-02-05_12:20:40 on domain   4:     .34000 elapsed seconds
Timing for main: time 2016-02-05_12:20:40 on domain   2:    2.60197 elapsed seconds
Timing for main: time 2016-02-05_12:20:53 on domain   3:     .31074 elapsed seconds
Timing for main: time 2016-02-05_12:21:06 on domain   3:     .29329 elapsed seconds
Timing for main: time 2016-02-05_12:21:20 on domain   3:     .29198 elapsed seconds
Timing for main: time 2016-02-05_12:21:00 on domain   4:     .34368 elapsed seconds
Timing for main: time 2016-02-05_12:21:20 on domain   4:     .34137 elapsed seconds
Timing for main: time 2016-02-05_12:21:20 on domain   2:    2.59588 elapsed seconds
Timing for main: time 2016-02-05_12:21:33 on domain   3:     .31038 elapsed seconds
Timing for main: time 2016-02-05_12:21:46 on domain   3:     .29202 elapsed seconds
Timing for main: time 2016-02-05_12:22:00 on domain   3:     .29323 elapsed seconds
Timing for main: time 2016-02-05_12:21:40 on domain   4:     .34374 elapsed seconds
Timing for main: time 2016-02-05_12:22:00 on domain   4:     .34115 elapsed seconds
Timing for main: time 2016-02-05_12:22:00 on domain   2:    2.57973 elapsed seconds
Timing for main: time 2016-02-05_12:22:00 on domain   1:    8.30103 elapsed seconds
Timing for main: time 2016-02-05_12:22:13 on domain   3:     .31097 elapsed seconds
Timing for main: time 2016-02-05_12:22:26 on domain   3:     .29198 elapsed seconds
Timing for main: time 2016-02-05_12:22:40 on domain   3:     .29508 elapsed seconds
Timing for main: time 2016-02-05_12:22:20 on domain   4:     .34416 elapsed seconds
Timing for main: time 2016-02-05_12:22:40 on domain   4:     .33977 elapsed seconds
Timing for main: time 2016-02-05_12:22:40 on domain   2:    2.58998 elapsed seconds
Timing for main: time 2016-02-05_12:22:53 on domain   3:     .31058 elapsed seconds
Timing for main: time 2016-02-05_12:23:06 on domain   3:     .29493 elapsed seconds
Timing for main: time 2016-02-05_12:23:20 on domain   3:     .29293 elapsed seconds
Timing for main: time 2016-02-05_12:23:00 on domain   4:     .34306 elapsed seconds
Timing for main: time 2016-02-05_12:23:20 on domain   4:     .34063 elapsed seconds
Timing for main: time 2016-02-05_12:23:20 on domain   2:    2.58178 elapsed seconds
Timing for main: time 2016-02-05_12:23:33 on domain   3:     .30937 elapsed seconds
Timing for main: time 2016-02-05_12:23:46 on domain   3:     .29401 elapsed seconds
Timing for main: time 2016-02-05_12:24:00 on domain   3:     .29267 elapsed seconds
Timing for main: time 2016-02-05_12:23:40 on domain   4:     .34388 elapsed seconds
Timing for main: time 2016-02-05_12:24:00 on domain   4:     .34111 elapsed seconds
Timing for main: time 2016-02-05_12:24:00 on domain   2:    2.58129 elapsed seconds
Timing for main: time 2016-02-05_12:24:00 on domain   1:    8.28385 elapsed seconds
Timing for main: time 2016-02-05_12:24:13 on domain   3:     .30914 elapsed seconds
Timing for main: time 2016-02-05_12:24:26 on domain   3:     .29370 elapsed seconds
Timing for main: time 2016-02-05_12:24:40 on domain   3:     .29243 elapsed seconds
Timing for main: time 2016-02-05_12:24:20 on domain   4:     .34304 elapsed seconds
Timing for main: time 2016-02-05_12:24:40 on domain   4:     .34494 elapsed seconds
Timing for main: time 2016-02-05_12:24:40 on domain   2:    2.58885 elapsed seconds
Timing for main: time 2016-02-05_12:24:53 on domain   3:     .31022 elapsed seconds
Timing for main: time 2016-02-05_12:25:06 on domain   3:     .29738 elapsed seconds
Timing for main: time 2016-02-05_12:25:20 on domain   3:     .29281 elapsed seconds
Timing for main: time 2016-02-05_12:25:00 on domain   4:     .35608 elapsed seconds
Timing for main: time 2016-02-05_12:25:20 on domain   4:     .34179 elapsed seconds
Timing for main: time 2016-02-05_12:25:20 on domain   2:    2.59889 elapsed seconds
Timing for main: time 2016-02-05_12:25:33 on domain   3:     .32245 elapsed seconds
Timing for main: time 2016-02-05_12:25:46 on domain   3:     .29379 elapsed seconds
Timing for main: time 2016-02-05_12:26:00 on domain   3:     .29229 elapsed seconds
Timing for main: time 2016-02-05_12:25:40 on domain   4:     .34281 elapsed seconds
Timing for main: time 2016-02-05_12:26:00 on domain   4:     .34055 elapsed seconds
Timing for main: time 2016-02-05_12:26:00 on domain   2:    2.59228 elapsed seconds
Timing for main: time 2016-02-05_12:26:00 on domain   1:    8.30637 elapsed seconds
Timing for main: time 2016-02-05_12:26:13 on domain   3:     .31084 elapsed seconds
Timing for main: time 2016-02-05_12:26:26 on domain   3:     .29302 elapsed seconds
Timing for main: time 2016-02-05_12:26:40 on domain   3:     .29171 elapsed seconds
Timing for main: time 2016-02-05_12:26:20 on domain   4:     .34413 elapsed seconds
Timing for main: time 2016-02-05_12:26:40 on domain   4:     .34092 elapsed seconds
Timing for main: time 2016-02-05_12:26:40 on domain   2:    2.60393 elapsed seconds
Timing for main: time 2016-02-05_12:26:53 on domain   3:     .31075 elapsed seconds
Timing for main: time 2016-02-05_12:27:06 on domain   3:     .29324 elapsed seconds
Timing for main: time 2016-02-05_12:27:20 on domain   3:     .29342 elapsed seconds
Timing for main: time 2016-02-05_12:27:00 on domain   4:     .34346 elapsed seconds
Timing for main: time 2016-02-05_12:27:20 on domain   4:     .34069 elapsed seconds
Timing for main: time 2016-02-05_12:27:20 on domain   2:    2.58074 elapsed seconds
Timing for main: time 2016-02-05_12:27:33 on domain   3:     .30838 elapsed seconds
Timing for main: time 2016-02-05_12:27:46 on domain   3:     .29506 elapsed seconds
Timing for main: time 2016-02-05_12:28:00 on domain   3:     .29179 elapsed seconds
Timing for main: time 2016-02-05_12:27:40 on domain   4:     .34410 elapsed seconds
Timing for main: time 2016-02-05_12:28:00 on domain   4:     .34053 elapsed seconds
Timing for main: time 2016-02-05_12:28:00 on domain   2:    2.57962 elapsed seconds
Timing for main: time 2016-02-05_12:28:00 on domain   1:    8.28723 elapsed seconds
  photolysis_driver: called for domain  1
Timing for main: time 2016-02-05_12:28:13 on domain   3:     .30914 elapsed seconds
Timing for main: time 2016-02-05_12:28:26 on domain   3:     .29230 elapsed seconds
Timing for main: time 2016-02-05_12:28:40 on domain   3:     .29765 elapsed seconds
Timing for main: time 2016-02-05_12:28:20 on domain   4:     .34301 elapsed seconds
Timing for main: time 2016-02-05_12:28:40 on domain   4:     .34161 elapsed seconds
Timing for main: time 2016-02-05_12:28:40 on domain   2:    2.69728 elapsed seconds
Timing for main: time 2016-02-05_12:28:53 on domain   3:     .30965 elapsed seconds
Timing for main: time 2016-02-05_12:29:06 on domain   3:     .29201 elapsed seconds
Timing for main: time 2016-02-05_12:29:20 on domain   3:     .29322 elapsed seconds
Timing for main: time 2016-02-05_12:29:00 on domain   4:     .34548 elapsed seconds
Timing for main: time 2016-02-05_12:29:20 on domain   4:     .34047 elapsed seconds
Timing for main: time 2016-02-05_12:29:20 on domain   2:    2.58229 elapsed seconds
  photolysis_driver: called for domain  2
Timing for main: time 2016-02-05_12:29:33 on domain   3:     .30789 elapsed seconds
Timing for main: time 2016-02-05_12:29:46 on domain   3:     .29559 elapsed seconds
  photolysis_driver: called for domain  3
Timing for main: time 2016-02-05_12:30:00 on domain   3:    1.49679 elapsed seconds
Timing for main: time 2016-02-05_12:29:40 on domain   4:     .34493 elapsed seconds
  photolysis_driver: called for domain  4
Timing for main: time 2016-02-05_12:30:00 on domain   4:    1.77461 elapsed seconds
Timing for main: time 2016-02-05_12:30:00 on domain   2:    6.74344 elapsed seconds
Timing for main: time 2016-02-05_12:30:00 on domain   1:   13.49997 elapsed seconds
Timing for main: time 2016-02-05_12:30:13 on domain   3:     .56538 elapsed seconds
Timing for main: time 2016-02-05_12:30:26 on domain   3:     .28941 elapsed seconds
Timing for main: time 2016-02-05_12:30:40 on domain   3:     .30446 elapsed seconds
Timing for main: time 2016-02-05_12:30:20 on domain   4:     .64030 elapsed seconds
Timing for main: time 2016-02-05_12:30:40 on domain   4:     .33929 elapsed seconds
Timing for main: time 2016-02-05_12:30:40 on domain   2:    3.46293 elapsed seconds
Timing for main: time 2016-02-05_12:30:53 on domain   3:     .30901 elapsed seconds
Timing for main: time 2016-02-05_12:31:06 on domain   3:     .29136 elapsed seconds
Timing for main: time 2016-02-05_12:31:20 on domain   3:     .29109 elapsed seconds
Timing for main: time 2016-02-05_12:31:00 on domain   4:     .34165 elapsed seconds
Timing for main: time 2016-02-05_12:31:20 on domain   4:     .33951 elapsed seconds
Timing for main: time 2016-02-05_12:31:20 on domain   2:    2.57357 elapsed seconds
Timing for main: time 2016-02-05_12:31:33 on domain   3:     .31006 elapsed seconds
Timing for main: time 2016-02-05_12:31:46 on domain   3:     .29073 elapsed seconds
Timing for main: time 2016-02-05_12:32:00 on domain   3:     .29462 elapsed seconds
Timing for main: time 2016-02-05_12:31:40 on domain   4:     .34202 elapsed seconds
Timing for main: time 2016-02-05_12:32:00 on domain   4:     .33905 elapsed seconds
Timing for main: time 2016-02-05_12:32:00 on domain   2:    2.58875 elapsed seconds
Timing for main: time 2016-02-05_12:32:00 on domain   1:    9.37542 elapsed seconds
Timing for main: time 2016-02-05_12:32:13 on domain   3:     .31005 elapsed seconds
Timing for main: time 2016-02-05_12:32:26 on domain   3:     .29310 elapsed seconds
Timing for main: time 2016-02-05_12:32:40 on domain   3:     .29151 elapsed seconds
Timing for main: time 2016-02-05_12:32:20 on domain   4:     .34159 elapsed seconds
Timing for main: time 2016-02-05_12:32:40 on domain   4:     .33939 elapsed seconds
Timing for main: time 2016-02-05_12:32:40 on domain   2:    2.58064 elapsed seconds
Timing for main: time 2016-02-05_12:32:53 on domain   3:     .30931 elapsed seconds
Timing for main: time 2016-02-05_12:33:06 on domain   3:     .29141 elapsed seconds
Timing for main: time 2016-02-05_12:33:20 on domain   3:     .28982 elapsed seconds
Timing for main: time 2016-02-05_12:33:00 on domain   4:     .34204 elapsed seconds
Timing for main: time 2016-02-05_12:33:20 on domain   4:     .34055 elapsed seconds
Timing for main: time 2016-02-05_12:33:20 on domain   2:    2.57341 elapsed seconds
Timing for main: time 2016-02-05_12:33:33 on domain   3:     .30970 elapsed seconds
Timing for main: time 2016-02-05_12:33:46 on domain   3:     .29175 elapsed seconds
Timing for main: time 2016-02-05_12:34:00 on domain   3:     .29099 elapsed seconds
Timing for main: time 2016-02-05_12:33:40 on domain   4:     .34073 elapsed seconds
Timing for main: time 2016-02-05_12:34:00 on domain   4:     .34049 elapsed seconds
Timing for main: time 2016-02-05_12:34:00 on domain   2:    2.57113 elapsed seconds
Timing for main: time 2016-02-05_12:34:00 on domain   1:    8.24819 elapsed seconds
Timing for main: time 2016-02-05_12:34:13 on domain   3:     .30957 elapsed seconds
Timing for main: time 2016-02-05_12:34:26 on domain   3:     .29193 elapsed seconds
Timing for main: time 2016-02-05_12:34:40 on domain   3:     .29008 elapsed seconds
Timing for main: time 2016-02-05_12:34:20 on domain   4:     .34502 elapsed seconds
Timing for main: time 2016-02-05_12:34:40 on domain   4:     .33613 elapsed seconds
Timing for main: time 2016-02-05_12:34:40 on domain   2:    2.59830 elapsed seconds
Timing for main: time 2016-02-05_12:34:53 on domain   3:     .30933 elapsed seconds
Timing for main: time 2016-02-05_12:35:06 on domain   3:     .29153 elapsed seconds
Timing for main: time 2016-02-05_12:35:20 on domain   3:     .29182 elapsed seconds
Timing for main: time 2016-02-05_12:35:00 on domain   4:     .35494 elapsed seconds
Timing for main: time 2016-02-05_12:35:20 on domain   4:     .33902 elapsed seconds
Timing for main: time 2016-02-05_12:35:20 on domain   2:    2.58600 elapsed seconds
Timing for main: time 2016-02-05_12:35:33 on domain   3:     .30966 elapsed seconds
Timing for main: time 2016-02-05_12:35:46 on domain   3:     .30158 elapsed seconds
Timing for main: time 2016-02-05_12:36:00 on domain   3:     .29204 elapsed seconds
Timing for main: time 2016-02-05_12:35:40 on domain   4:     .34158 elapsed seconds
Timing for main: time 2016-02-05_12:36:00 on domain   4:     .33915 elapsed seconds
Timing for main: time 2016-02-05_12:36:00 on domain   2:    2.58782 elapsed seconds
Timing for main: time 2016-02-05_12:36:00 on domain   1:    8.30431 elapsed seconds
Timing for main: time 2016-02-05_12:36:13 on domain   3:     .30811 elapsed seconds
Timing for main: time 2016-02-05_12:36:26 on domain   3:     .29095 elapsed seconds
Timing for main: time 2016-02-05_12:36:40 on domain   3:     .29068 elapsed seconds
Timing for main: time 2016-02-05_12:36:20 on domain   4:     .34108 elapsed seconds
Timing for main: time 2016-02-05_12:36:40 on domain   4:     .33953 elapsed seconds
Timing for main: time 2016-02-05_12:36:40 on domain   2:    2.57823 elapsed seconds
Timing for main: time 2016-02-05_12:36:53 on domain   3:     .30981 elapsed seconds
Timing for main: time 2016-02-05_12:37:06 on domain   3:     .29001 elapsed seconds
Timing for main: time 2016-02-05_12:37:20 on domain   3:     .29216 elapsed seconds
Timing for main: time 2016-02-05_12:37:00 on domain   4:     .34170 elapsed seconds
Timing for main: time 2016-02-05_12:37:20 on domain   4:     .36121 elapsed seconds
Timing for main: time 2016-02-05_12:37:20 on domain   2:    2.60949 elapsed seconds
Timing for main: time 2016-02-05_12:37:33 on domain   3:     .30894 elapsed seconds
Timing for main: time 2016-02-05_12:37:46 on domain   3:     .29370 elapsed seconds
Timing for main: time 2016-02-05_12:38:00 on domain   3:     .29224 elapsed seconds
Timing for main: time 2016-02-05_12:37:40 on domain   4:     .34146 elapsed seconds
Timing for main: time 2016-02-05_12:38:00 on domain   4:     .33936 elapsed seconds
Timing for main: time 2016-02-05_12:38:00 on domain   2:    2.57543 elapsed seconds
Timing for main: time 2016-02-05_12:38:00 on domain   1:    8.28721 elapsed seconds
Timing for main: time 2016-02-05_12:38:13 on domain   3:     .30817 elapsed seconds
Timing for main: time 2016-02-05_12:38:26 on domain   3:     .29090 elapsed seconds
Timing for main: time 2016-02-05_12:38:40 on domain   3:     .29089 elapsed seconds
Timing for main: time 2016-02-05_12:38:20 on domain   4:     .34019 elapsed seconds
Timing for main: time 2016-02-05_12:38:40 on domain   4:     .33954 elapsed seconds
Timing for main: time 2016-02-05_12:38:40 on domain   2:    2.57859 elapsed seconds
Timing for main: time 2016-02-05_12:38:53 on domain   3:     .30774 elapsed seconds
Timing for main: time 2016-02-05_12:39:06 on domain   3:     .29414 elapsed seconds
Timing for main: time 2016-02-05_12:39:20 on domain   3:     .30206 elapsed seconds
Timing for main: time 2016-02-05_12:39:00 on domain   4:     .34288 elapsed seconds
Timing for main: time 2016-02-05_12:39:20 on domain   4:     .33958 elapsed seconds
Timing for main: time 2016-02-05_12:39:20 on domain   2:    2.58738 elapsed seconds
Timing for main: time 2016-02-05_12:39:33 on domain   3:     .30878 elapsed seconds
Timing for main: time 2016-02-05_12:39:46 on domain   3:     .29327 elapsed seconds
Timing for main: time 2016-02-05_12:40:00 on domain   3:     .29055 elapsed seconds
Timing for main: time 2016-02-05_12:39:40 on domain   4:     .34186 elapsed seconds
Timing for main: time 2016-02-05_12:40:00 on domain   4:     .35351 elapsed seconds
Timing for main: time 2016-02-05_12:40:00 on domain   2:    2.58483 elapsed seconds
Timing for main: time 2016-02-05_12:40:00 on domain   1:    8.27416 elapsed seconds
Timing for main: time 2016-02-05_12:40:13 on domain   3:     .30767 elapsed seconds
Timing for main: time 2016-02-05_12:40:26 on domain   3:     .29385 elapsed seconds
Timing for main: time 2016-02-05_12:40:40 on domain   3:     .29108 elapsed seconds
Timing for main: time 2016-02-05_12:40:20 on domain   4:     .33992 elapsed seconds
Timing for main: time 2016-02-05_12:40:40 on domain   4:     .33946 elapsed seconds
Timing for main: time 2016-02-05_12:40:40 on domain   2:    2.58156 elapsed seconds
Timing for main: time 2016-02-05_12:40:53 on domain   3:     .31988 elapsed seconds
Timing for main: time 2016-02-05_12:41:06 on domain   3:     .29130 elapsed seconds
Timing for main: time 2016-02-05_12:41:20 on domain   3:     .29010 elapsed seconds
Timing for main: time 2016-02-05_12:41:00 on domain   4:     .33971 elapsed seconds
Timing for main: time 2016-02-05_12:41:20 on domain   4:     .33943 elapsed seconds
Timing for main: time 2016-02-05_12:41:20 on domain   2:    2.58188 elapsed seconds
Timing for main: time 2016-02-05_12:41:33 on domain   3:     .36005 elapsed seconds
Timing for main: time 2016-02-05_12:41:46 on domain   3:     .33591 elapsed seconds
Timing for main: time 2016-02-05_12:42:00 on domain   3:     .28988 elapsed seconds
Timing for main: time 2016-02-05_12:41:40 on domain   4:     .34020 elapsed seconds
Timing for main: time 2016-02-05_12:42:00 on domain   4:     .34027 elapsed seconds
Timing for main: time 2016-02-05_12:42:00 on domain   2:    2.66908 elapsed seconds
Timing for main: time 2016-02-05_12:42:00 on domain   1:    8.36418 elapsed seconds
Timing for main: time 2016-02-05_12:42:13 on domain   3:     .30801 elapsed seconds
Timing for main: time 2016-02-05_12:42:26 on domain   3:     .29097 elapsed seconds
Timing for main: time 2016-02-05_12:42:40 on domain   3:     .29187 elapsed seconds
Timing for main: time 2016-02-05_12:42:20 on domain   4:     .34248 elapsed seconds
Timing for main: time 2016-02-05_12:42:40 on domain   4:     .34410 elapsed seconds
Timing for main: time 2016-02-05_12:42:40 on domain   2:    2.60100 elapsed seconds
Timing for main: time 2016-02-05_12:42:53 on domain   3:     .30912 elapsed seconds
Timing for main: time 2016-02-05_12:43:06 on domain   3:     .29019 elapsed seconds
Timing for main: time 2016-02-05_12:43:20 on domain   3:     .29060 elapsed seconds
Timing for main: time 2016-02-05_12:43:00 on domain   4:     .34281 elapsed seconds
Timing for main: time 2016-02-05_12:43:20 on domain   4:     .33968 elapsed seconds
Timing for main: time 2016-02-05_12:43:20 on domain   2:    2.57100 elapsed seconds
Timing for main: time 2016-02-05_12:43:33 on domain   3:     .30827 elapsed seconds
Timing for main: time 2016-02-05_12:43:46 on domain   3:     .29069 elapsed seconds
Timing for main: time 2016-02-05_12:44:00 on domain   3:     .29106 elapsed seconds
Timing for main: time 2016-02-05_12:43:40 on domain   4:     .34248 elapsed seconds
Timing for main: time 2016-02-05_12:44:00 on domain   4:     .34062 elapsed seconds
Timing for main: time 2016-02-05_12:44:00 on domain   2:    2.57360 elapsed seconds
Timing for main: time 2016-02-05_12:44:00 on domain   1:    8.26868 elapsed seconds
Timing for main: time 2016-02-05_12:44:13 on domain   3:     .30881 elapsed seconds
Timing for main: time 2016-02-05_12:44:26 on domain   3:     .29123 elapsed seconds
Timing for main: time 2016-02-05_12:44:40 on domain   3:     .29199 elapsed seconds
Timing for main: time 2016-02-05_12:44:20 on domain   4:     .34581 elapsed seconds
Timing for main: time 2016-02-05_12:44:40 on domain   4:     .33705 elapsed seconds
Timing for main: time 2016-02-05_12:44:40 on domain   2:    2.58433 elapsed seconds
Timing for main: time 2016-02-05_12:44:53 on domain   3:     .30875 elapsed seconds
Timing for main: time 2016-02-05_12:45:06 on domain   3:     .29055 elapsed seconds
Timing for main: time 2016-02-05_12:45:20 on domain   3:     .29176 elapsed seconds
Timing for main: time 2016-02-05_12:45:00 on domain   4:     .36010 elapsed seconds
Timing for main: time 2016-02-05_12:45:20 on domain   4:     .33680 elapsed seconds
Timing for main: time 2016-02-05_12:45:20 on domain   2:    2.58664 elapsed seconds
Timing for main: time 2016-02-05_12:45:33 on domain   3:     .30787 elapsed seconds
Timing for main: time 2016-02-05_12:45:46 on domain   3:     .29073 elapsed seconds
Timing for main: time 2016-02-05_12:46:00 on domain   3:     .30386 elapsed seconds
Timing for main: time 2016-02-05_12:45:40 on domain   4:     .34191 elapsed seconds
Timing for main: time 2016-02-05_12:46:00 on domain   4:     .33677 elapsed seconds
Timing for main: time 2016-02-05_12:46:00 on domain   2:    2.57898 elapsed seconds
Timing for main: time 2016-02-05_12:46:00 on domain   1:    8.27313 elapsed seconds
Timing for main: time 2016-02-05_12:46:13 on domain   3:     .32609 elapsed seconds
Timing for main: time 2016-02-05_12:46:26 on domain   3:     .29136 elapsed seconds
Timing for main: time 2016-02-05_12:46:40 on domain   3:     .29251 elapsed seconds
Timing for main: time 2016-02-05_12:46:20 on domain   4:     .34471 elapsed seconds
Timing for main: time 2016-02-05_12:46:40 on domain   4:     .33903 elapsed seconds
Timing for main: time 2016-02-05_12:46:40 on domain   2:    2.60029 elapsed seconds
Timing for main: time 2016-02-05_12:46:53 on domain   3:     .30926 elapsed seconds
Timing for main: time 2016-02-05_12:47:06 on domain   3:     .28966 elapsed seconds
Timing for main: time 2016-02-05_12:47:20 on domain   3:     .29093 elapsed seconds
Timing for main: time 2016-02-05_12:47:00 on domain   4:     .34294 elapsed seconds
Timing for main: time 2016-02-05_12:47:20 on domain   4:     .33944 elapsed seconds
Timing for main: time 2016-02-05_12:47:20 on domain   2:    2.67135 elapsed seconds
Timing for main: time 2016-02-05_12:47:33 on domain   3:     .30972 elapsed seconds
Timing for main: time 2016-02-05_12:47:46 on domain   3:     .29423 elapsed seconds
Timing for main: time 2016-02-05_12:48:00 on domain   3:     .29073 elapsed seconds
Timing for main: time 2016-02-05_12:47:40 on domain   4:     .34251 elapsed seconds
Timing for main: time 2016-02-05_12:48:00 on domain   4:     .33951 elapsed seconds
Timing for main: time 2016-02-05_12:48:00 on domain   2:    2.58924 elapsed seconds
Timing for main: time 2016-02-05_12:48:00 on domain   1:    8.39078 elapsed seconds
Timing for main: time 2016-02-05_12:48:13 on domain   3:     .30687 elapsed seconds
Timing for main: time 2016-02-05_12:48:26 on domain   3:     .29308 elapsed seconds
Timing for main: time 2016-02-05_12:48:40 on domain   3:     .28962 elapsed seconds
Timing for main: time 2016-02-05_12:48:20 on domain   4:     .34262 elapsed seconds
Timing for main: time 2016-02-05_12:48:40 on domain   4:     .33920 elapsed seconds
Timing for main: time 2016-02-05_12:48:40 on domain   2:    2.57976 elapsed seconds
Timing for main: time 2016-02-05_12:48:53 on domain   3:     .30821 elapsed seconds
Timing for main: time 2016-02-05_12:49:06 on domain   3:     .29109 elapsed seconds
Timing for main: time 2016-02-05_12:49:20 on domain   3:     .29133 elapsed seconds
Timing for main: time 2016-02-05_12:49:00 on domain   4:     .34097 elapsed seconds
Timing for main: time 2016-02-05_12:49:20 on domain   4:     .33916 elapsed seconds
Timing for main: time 2016-02-05_12:49:20 on domain   2:    2.57148 elapsed seconds
Timing for main: time 2016-02-05_12:49:33 on domain   3:     .30667 elapsed seconds
Timing for main: time 2016-02-05_12:49:46 on domain   3:     .29108 elapsed seconds
Timing for main: time 2016-02-05_12:50:00 on domain   3:     .29176 elapsed seconds
Timing for main: time 2016-02-05_12:49:40 on domain   4:     .34151 elapsed seconds
Timing for main: time 2016-02-05_12:50:00 on domain   4:     .35818 elapsed seconds
Timing for main: time 2016-02-05_12:50:00 on domain   2:    2.58904 elapsed seconds
Timing for main: time 2016-02-05_12:50:00 on domain   1:    8.26250 elapsed seconds
Timing for main: time 2016-02-05_12:50:13 on domain   3:     .30645 elapsed seconds
Timing for main: time 2016-02-05_12:50:26 on domain   3:     .29017 elapsed seconds
Timing for main: time 2016-02-05_12:50:40 on domain   3:     .29250 elapsed seconds
Timing for main: time 2016-02-05_12:50:20 on domain   4:     .34129 elapsed seconds
Timing for main: time 2016-02-05_12:50:40 on domain   4:     .33966 elapsed seconds
Timing for main: time 2016-02-05_12:50:40 on domain   2:    2.57776 elapsed seconds
Timing for main: time 2016-02-05_12:50:53 on domain   3:     .30735 elapsed seconds
Timing for main: time 2016-02-05_12:51:06 on domain   3:     .30259 elapsed seconds
Timing for main: time 2016-02-05_12:51:20 on domain   3:     .29234 elapsed seconds
Timing for main: time 2016-02-05_12:51:00 on domain   4:     .34248 elapsed seconds
Timing for main: time 2016-02-05_12:51:20 on domain   4:     .34156 elapsed seconds
Timing for main: time 2016-02-05_12:51:20 on domain   2:    2.58466 elapsed seconds
Timing for main: time 2016-02-05_12:51:33 on domain   3:     .30231 elapsed seconds
Timing for main: time 2016-02-05_12:51:46 on domain   3:     .29160 elapsed seconds
Timing for main: time 2016-02-05_12:52:00 on domain   3:     .29059 elapsed seconds
Timing for main: time 2016-02-05_12:51:40 on domain   4:     .34344 elapsed seconds
Timing for main: time 2016-02-05_12:52:00 on domain   4:     .34010 elapsed seconds
Timing for main: time 2016-02-05_12:52:00 on domain   2:    2.57277 elapsed seconds
Timing for main: time 2016-02-05_12:52:00 on domain   1:    8.25881 elapsed seconds
Timing for main: time 2016-02-05_12:52:13 on domain   3:     .30697 elapsed seconds
Timing for main: time 2016-02-05_12:52:26 on domain   3:     .29101 elapsed seconds
Timing for main: time 2016-02-05_12:52:40 on domain   3:     .29596 elapsed seconds
Timing for main: time 2016-02-05_12:52:20 on domain   4:     .34221 elapsed seconds
Timing for main: time 2016-02-05_12:52:40 on domain   4:     .33966 elapsed seconds
Timing for main: time 2016-02-05_12:52:40 on domain   2:    2.64699 elapsed seconds
Timing for main: time 2016-02-05_12:52:53 on domain   3:     .30805 elapsed seconds
Timing for main: time 2016-02-05_12:53:06 on domain   3:     .29036 elapsed seconds
Timing for main: time 2016-02-05_12:53:20 on domain   3:     .29112 elapsed seconds
Timing for main: time 2016-02-05_12:53:00 on domain   4:     .34251 elapsed seconds
Timing for main: time 2016-02-05_12:53:20 on domain   4:     .33874 elapsed seconds
Timing for main: time 2016-02-05_12:53:20 on domain   2:    2.58455 elapsed seconds
Timing for main: time 2016-02-05_12:53:33 on domain   3:     .30900 elapsed seconds
Timing for main: time 2016-02-05_12:53:46 on domain   3:     .29019 elapsed seconds
Timing for main: time 2016-02-05_12:54:00 on domain   3:     .29338 elapsed seconds
Timing for main: time 2016-02-05_12:53:40 on domain   4:     .34268 elapsed seconds
Timing for main: time 2016-02-05_12:54:00 on domain   4:     .33931 elapsed seconds
Timing for main: time 2016-02-05_12:54:00 on domain   2:    2.57488 elapsed seconds
Timing for main: time 2016-02-05_12:54:00 on domain   1:    8.33601 elapsed seconds
Timing for main: time 2016-02-05_12:54:13 on domain   3:     .30939 elapsed seconds
Timing for main: time 2016-02-05_12:54:26 on domain   3:     .29067 elapsed seconds
Timing for main: time 2016-02-05_12:54:40 on domain   3:     .29129 elapsed seconds
Timing for main: time 2016-02-05_12:54:20 on domain   4:     .34319 elapsed seconds
Timing for main: time 2016-02-05_12:54:40 on domain   4:     .33945 elapsed seconds
Timing for main: time 2016-02-05_12:54:40 on domain   2:    2.58187 elapsed seconds
Timing for main: time 2016-02-05_12:54:53 on domain   3:     .30923 elapsed seconds
Timing for main: time 2016-02-05_12:55:06 on domain   3:     .29095 elapsed seconds
Timing for main: time 2016-02-05_12:55:20 on domain   3:     .33520 elapsed seconds
Timing for main: time 2016-02-05_12:55:00 on domain   4:     .35596 elapsed seconds
Timing for main: time 2016-02-05_12:55:20 on domain   4:     .33979 elapsed seconds
Timing for main: time 2016-02-05_12:55:20 on domain   2:    2.63515 elapsed seconds
Timing for main: time 2016-02-05_12:55:33 on domain   3:     .30838 elapsed seconds
Timing for main: time 2016-02-05_12:55:46 on domain   3:     .28991 elapsed seconds
Timing for main: time 2016-02-05_12:56:00 on domain   3:     .29114 elapsed seconds
Timing for main: time 2016-02-05_12:55:40 on domain   4:     .34317 elapsed seconds
Timing for main: time 2016-02-05_12:56:00 on domain   4:     .33870 elapsed seconds
Timing for main: time 2016-02-05_12:56:00 on domain   2:    2.56771 elapsed seconds
Timing for main: time 2016-02-05_12:56:00 on domain   1:    8.30790 elapsed seconds
Timing for main: time 2016-02-05_12:56:13 on domain   3:     .31942 elapsed seconds
Timing for main: time 2016-02-05_12:56:26 on domain   3:     .29158 elapsed seconds
Timing for main: time 2016-02-05_12:56:40 on domain   3:     .29232 elapsed seconds
Timing for main: time 2016-02-05_12:56:20 on domain   4:     .34246 elapsed seconds
Timing for main: time 2016-02-05_12:56:40 on domain   4:     .33919 elapsed seconds
Timing for main: time 2016-02-05_12:56:40 on domain   2:    2.59265 elapsed seconds
Timing for main: time 2016-02-05_12:56:53 on domain   3:     .30919 elapsed seconds
Timing for main: time 2016-02-05_12:57:06 on domain   3:     .29014 elapsed seconds
Timing for main: time 2016-02-05_12:57:20 on domain   3:     .29092 elapsed seconds
Timing for main: time 2016-02-05_12:57:00 on domain   4:     .34266 elapsed seconds
Timing for main: time 2016-02-05_12:57:20 on domain   4:     .33506 elapsed seconds
Timing for main: time 2016-02-05_12:57:20 on domain   2:    2.56892 elapsed seconds
Timing for main: time 2016-02-05_12:57:33 on domain   3:     .30832 elapsed seconds
Timing for main: time 2016-02-05_12:57:46 on domain   3:     .29309 elapsed seconds
Timing for main: time 2016-02-05_12:58:00 on domain   3:     .29073 elapsed seconds
Timing for main: time 2016-02-05_12:57:40 on domain   4:     .34178 elapsed seconds
Timing for main: time 2016-02-05_12:58:00 on domain   4:     .33947 elapsed seconds
Timing for main: time 2016-02-05_12:58:00 on domain   2:    2.68515 elapsed seconds
Timing for main: time 2016-02-05_12:58:00 on domain   1:    8.36904 elapsed seconds
  photolysis_driver: called for domain  1
Timing for main: time 2016-02-05_12:58:13 on domain   3:     .30895 elapsed seconds
Timing for main: time 2016-02-05_12:58:26 on domain   3:     .29101 elapsed seconds
Timing for main: time 2016-02-05_12:58:40 on domain   3:     .28859 elapsed seconds
Timing for main: time 2016-02-05_12:58:20 on domain   4:     .34075 elapsed seconds
Timing for main: time 2016-02-05_12:58:40 on domain   4:     .33928 elapsed seconds
Timing for main: time 2016-02-05_12:58:40 on domain   2:    2.59129 elapsed seconds
Timing for main: time 2016-02-05_12:58:53 on domain   3:     .30821 elapsed seconds
Timing for main: time 2016-02-05_12:59:06 on domain   3:     .28986 elapsed seconds
Timing for main: time 2016-02-05_12:59:20 on domain   3:     .29024 elapsed seconds
Timing for main: time 2016-02-05_12:59:00 on domain   4:     .38966 elapsed seconds
Timing for main: time 2016-02-05_12:59:20 on domain   4:     .33464 elapsed seconds
Timing for main: time 2016-02-05_12:59:20 on domain   2:    2.61476 elapsed seconds
  photolysis_driver: called for domain  2
Timing for main: time 2016-02-05_12:59:33 on domain   3:     .30952 elapsed seconds
Timing for main: time 2016-02-05_12:59:46 on domain   3:     .28935 elapsed seconds
  photolysis_driver: called for domain  3
Timing for main: time 2016-02-05_13:00:00 on domain   3:    1.49278 elapsed seconds
Timing for main: time 2016-02-05_12:59:40 on domain   4:     .34473 elapsed seconds
  photolysis_driver: called for domain  4
Timing for main: time 2016-02-05_13:00:00 on domain   4:    1.77787 elapsed seconds
Timing for main: time 2016-02-05_13:00:00 on domain   2:    6.73244 elapsed seconds
Timing for main: time 2016-02-05_13:00:00 on domain   1:   13.41427 elapsed seconds
Timing for Writing wrfout_d01_2016-02-05_13:00:00 for domain        1:    1.85506 elapsed seconds
  HOURLY EMISSIONS UPDATE TIME     3600.0        .0
 mediation_integrate: med_read_wrf_chem_emissions: Read emissions for time 2016-02-05_13:00:00
 **WARNING** Time in input file not being checked **WARNING**
Timing for Writing wrfout_d02_2016-02-05_13:00:00 for domain        2:    2.57703 elapsed seconds
Timing for Writing wrfout_d03_2016-02-05_13:00:00 for domain        3:    2.70639 elapsed seconds
Timing for main: time 2016-02-05_13:00:13 on domain   3:    3.31554 elapsed seconds
Timing for main: time 2016-02-05_13:00:26 on domain   3:     .32574 elapsed seconds
Timing for main: time 2016-02-05_13:00:40 on domain   3:     .33125 elapsed seconds
Timing for Writing wrfout_d04_2016-02-05_13:00:00 for domain        4:    2.53947 elapsed seconds
Timing for main: time 2016-02-05_13:00:20 on domain   4:    3.33179 elapsed seconds
Timing for main: time 2016-02-05_13:00:40 on domain   4:     .33887 elapsed seconds
Timing for main: time 2016-02-05_13:00:40 on domain   2:   11.60948 elapsed seconds
Timing for main: time 2016-02-05_13:00:53 on domain   3:     .30611 elapsed seconds
Timing for main: time 2016-02-05_13:01:06 on domain   3:     .29035 elapsed seconds
Timing for main: time 2016-02-05_13:01:20 on domain   3:     .30355 elapsed seconds
Timing for main: time 2016-02-05_13:01:00 on domain   4:     .34226 elapsed seconds
Timing for main: time 2016-02-05_13:01:20 on domain   4:     .33875 elapsed seconds
Timing for main: time 2016-02-05_13:01:20 on domain   2:    2.58055 elapsed seconds
Timing for main: time 2016-02-05_13:01:33 on domain   3:     .30542 elapsed seconds
Timing for main: time 2016-02-05_13:01:46 on domain   3:     .29157 elapsed seconds
Timing for main: time 2016-02-05_13:02:00 on domain   3:     .28947 elapsed seconds
Timing for main: time 2016-02-05_13:01:40 on domain   4:     .34242 elapsed seconds
Timing for main: time 2016-02-05_13:02:00 on domain   4:     .33931 elapsed seconds
Timing for main: time 2016-02-05_13:02:00 on domain   2:    2.56928 elapsed seconds
Timing for main: time 2016-02-05_13:02:00 on domain   1:   20.83360 elapsed seconds
Timing for main: time 2016-02-05_13:02:13 on domain   3:     .32416 elapsed seconds
Timing for main: time 2016-02-05_13:02:26 on domain   3:     .29073 elapsed seconds
Timing for main: time 2016-02-05_13:02:40 on domain   3:     .29051 elapsed seconds
Timing for main: time 2016-02-05_13:02:20 on domain   4:     .34129 elapsed seconds
Timing for main: time 2016-02-05_13:02:40 on domain   4:     .34031 elapsed seconds
Timing for main: time 2016-02-05_13:02:40 on domain   2:    2.60111 elapsed seconds
Timing for main: time 2016-02-05_13:02:53 on domain   3:     .30862 elapsed seconds
Timing for main: time 2016-02-05_13:03:06 on domain   3:     .29002 elapsed seconds
Timing for main: time 2016-02-05_13:03:20 on domain   3:     .29060 elapsed seconds
Timing for main: time 2016-02-05_13:03:00 on domain   4:     .34178 elapsed seconds
Timing for main: time 2016-02-05_13:03:20 on domain   4:     .33933 elapsed seconds
Timing for main: time 2016-02-05_13:03:20 on domain   2:    2.56985 elapsed seconds
Timing for main: time 2016-02-05_13:03:33 on domain   3:     .30608 elapsed seconds
Timing for main: time 2016-02-05_13:03:46 on domain   3:     .29084 elapsed seconds
Timing for main: time 2016-02-05_13:04:00 on domain   3:     .29030 elapsed seconds
Timing for main: time 2016-02-05_13:03:40 on domain   4:     .34234 elapsed seconds
Timing for main: time 2016-02-05_13:04:00 on domain   4:     .33995 elapsed seconds
Timing for main: time 2016-02-05_13:04:00 on domain   2:    2.58527 elapsed seconds
Timing for main: time 2016-02-05_13:04:00 on domain   1:    8.29359 elapsed seconds
Timing for main: time 2016-02-05_13:04:13 on domain   3:     .30606 elapsed seconds
Timing for main: time 2016-02-05_13:04:26 on domain   3:     .29107 elapsed seconds
Timing for main: time 2016-02-05_13:04:40 on domain   3:     .28878 elapsed seconds
Timing for main: time 2016-02-05_13:04:20 on domain   4:     .34250 elapsed seconds
Timing for main: time 2016-02-05_13:04:40 on domain   4:     .33946 elapsed seconds
Timing for main: time 2016-02-05_13:04:40 on domain   2:    2.57361 elapsed seconds
Timing for main: time 2016-02-05_13:04:53 on domain   3:     .30628 elapsed seconds
Timing for main: time 2016-02-05_13:05:06 on domain   3:     .29077 elapsed seconds
Timing for main: time 2016-02-05_13:05:20 on domain   3:     .29353 elapsed seconds
Timing for main: time 2016-02-05_13:05:00 on domain   4:     .35566 elapsed seconds
Timing for main: time 2016-02-05_13:05:20 on domain   4:     .33970 elapsed seconds
Timing for main: time 2016-02-05_13:05:20 on domain   2:    2.58304 elapsed seconds
Timing for main: time 2016-02-05_13:05:33 on domain   3:     .30724 elapsed seconds
Timing for main: time 2016-02-05_13:05:46 on domain   3:     .28934 elapsed seconds
Timing for main: time 2016-02-05_13:06:00 on domain   3:     .29163 elapsed seconds
Timing for main: time 2016-02-05_13:05:40 on domain   4:     .34229 elapsed seconds
Timing for main: time 2016-02-05_13:06:00 on domain   4:     .33940 elapsed seconds
Timing for main: time 2016-02-05_13:06:00 on domain   2:    2.56504 elapsed seconds
Timing for main: time 2016-02-05_13:06:00 on domain   1:    8.25333 elapsed seconds
Timing for main: time 2016-02-05_13:06:13 on domain   3:     .31000 elapsed seconds
Timing for main: time 2016-02-05_13:06:26 on domain   3:     .30075 elapsed seconds
Timing for main: time 2016-02-05_13:06:40 on domain   3:     .29006 elapsed seconds
Timing for main: time 2016-02-05_13:06:20 on domain   4:     .33685 elapsed seconds
Timing for main: time 2016-02-05_13:06:40 on domain   4:     .33838 elapsed seconds
Timing for main: time 2016-02-05_13:06:40 on domain   2:    2.58794 elapsed seconds
Timing for main: time 2016-02-05_13:06:53 on domain   3:     .30770 elapsed seconds
Timing for main: time 2016-02-05_13:07:06 on domain   3:     .29025 elapsed seconds
Timing for main: time 2016-02-05_13:07:20 on domain   3:     .29055 elapsed seconds
Timing for main: time 2016-02-05_13:07:00 on domain   4:     .34140 elapsed seconds
Timing for main: time 2016-02-05_13:07:20 on domain   4:     .33977 elapsed seconds
Timing for main: time 2016-02-05_13:07:20 on domain   2:    2.56634 elapsed seconds
Timing for main: time 2016-02-05_13:07:33 on domain   3:     .30612 elapsed seconds
Timing for main: time 2016-02-05_13:07:46 on domain   3:     .28985 elapsed seconds
Timing for main: time 2016-02-05_13:08:00 on domain   3:     .29080 elapsed seconds
Timing for main: time 2016-02-05_13:07:40 on domain   4:     .34454 elapsed seconds
Timing for main: time 2016-02-05_13:08:00 on domain   4:     .33959 elapsed seconds
Timing for main: time 2016-02-05_13:08:00 on domain   2:    2.57872 elapsed seconds
Timing for main: time 2016-02-05_13:08:00 on domain   1:    8.25583 elapsed seconds
Timing for main: time 2016-02-05_13:08:13 on domain   3:     .30712 elapsed seconds
Timing for main: time 2016-02-05_13:08:26 on domain   3:     .28981 elapsed seconds
Timing for main: time 2016-02-05_13:08:40 on domain   3:     .29503 elapsed seconds
Timing for main: time 2016-02-05_13:08:20 on domain   4:     .34549 elapsed seconds
Timing for main: time 2016-02-05_13:08:40 on domain   4:     .33910 elapsed seconds
Timing for main: time 2016-02-05_13:08:40 on domain   2:    2.58333 elapsed seconds
Timing for main: time 2016-02-05_13:08:53 on domain   3:     .30912 elapsed seconds
Timing for main: time 2016-02-05_13:09:06 on domain   3:     .28929 elapsed seconds
Timing for main: time 2016-02-05_13:09:20 on domain   3:     .29164 elapsed seconds
Timing for main: time 2016-02-05_13:09:00 on domain   4:     .34217 elapsed seconds
Timing for main: time 2016-02-05_13:09:20 on domain   4:     .34073 elapsed seconds
Timing for main: time 2016-02-05_13:09:20 on domain   2:    2.58469 elapsed seconds
Timing for main: time 2016-02-05_13:09:33 on domain   3:     .31084 elapsed seconds
Timing for main: time 2016-02-05_13:09:46 on domain   3:     .29133 elapsed seconds
Timing for main: time 2016-02-05_13:10:00 on domain   3:     .29001 elapsed seconds
Timing for main: time 2016-02-05_13:09:40 on domain   4:     .34212 elapsed seconds
Timing for main: time 2016-02-05_13:10:00 on domain   4:     .35608 elapsed seconds
Timing for main: time 2016-02-05_13:10:00 on domain   2:    2.60181 elapsed seconds
Timing for main: time 2016-02-05_13:10:00 on domain   1:    8.29256 elapsed seconds
Timing for main: time 2016-02-05_13:10:13 on domain   3:     .30953 elapsed seconds
Timing for main: time 2016-02-05_13:10:26 on domain   3:     .28867 elapsed seconds
Timing for main: time 2016-02-05_13:10:40 on domain   3:     .28982 elapsed seconds
Timing for main: time 2016-02-05_13:10:20 on domain   4:     .34224 elapsed seconds
Timing for main: time 2016-02-05_13:10:40 on domain   4:     .33927 elapsed seconds
Timing for main: time 2016-02-05_13:10:40 on domain   2:    2.57707 elapsed seconds
Timing for main: time 2016-02-05_13:10:53 on domain   3:     .30993 elapsed seconds
Timing for main: time 2016-02-05_13:11:06 on domain   3:     .29024 elapsed seconds
Timing for main: time 2016-02-05_13:11:20 on domain   3:     .31132 elapsed seconds
Timing for main: time 2016-02-05_13:11:00 on domain   4:     .34352 elapsed seconds
Timing for main: time 2016-02-05_13:11:20 on domain   4:     .33916 elapsed seconds
Timing for main: time 2016-02-05_13:11:20 on domain   2:    2.59046 elapsed seconds
Timing for main: time 2016-02-05_13:11:33 on domain   3:     .32084 elapsed seconds
Timing for main: time 2016-02-05_13:11:46 on domain   3:     .29251 elapsed seconds
Timing for main: time 2016-02-05_13:12:00 on domain   3:     .28822 elapsed seconds
Timing for main: time 2016-02-05_13:11:40 on domain   4:     .34313 elapsed seconds
Timing for main: time 2016-02-05_13:12:00 on domain   4:     .33875 elapsed seconds
Timing for main: time 2016-02-05_13:12:00 on domain   2:    2.57858 elapsed seconds
Timing for main: time 2016-02-05_13:12:00 on domain   1:    8.27557 elapsed seconds
Timing for main: time 2016-02-05_13:12:13 on domain   3:     .31115 elapsed seconds
Timing for main: time 2016-02-05_13:12:26 on domain   3:     .29039 elapsed seconds
Timing for main: time 2016-02-05_13:12:40 on domain   3:     .29080 elapsed seconds
Timing for main: time 2016-02-05_13:12:20 on domain   4:     .34534 elapsed seconds
Timing for main: time 2016-02-05_13:12:40 on domain   4:     .44105 elapsed seconds
Timing for main: time 2016-02-05_13:12:40 on domain   2:    2.68394 elapsed seconds
Timing for main: time 2016-02-05_13:12:53 on domain   3:     .31007 elapsed seconds
Timing for main: time 2016-02-05_13:13:06 on domain   3:     .28953 elapsed seconds
Timing for main: time 2016-02-05_13:13:20 on domain   3:     .28941 elapsed seconds
Timing for main: time 2016-02-05_13:13:00 on domain   4:     .34110 elapsed seconds
Timing for main: time 2016-02-05_13:13:20 on domain   4:     .33964 elapsed seconds
Timing for main: time 2016-02-05_13:13:20 on domain   2:    2.56825 elapsed seconds
Timing for main: time 2016-02-05_13:13:33 on domain   3:     .30878 elapsed seconds
Timing for main: time 2016-02-05_13:13:46 on domain   3:     .29027 elapsed seconds
Timing for main: time 2016-02-05_13:14:00 on domain   3:     .28894 elapsed seconds
Timing for main: time 2016-02-05_13:13:40 on domain   4:     .34271 elapsed seconds
Timing for main: time 2016-02-05_13:14:00 on domain   4:     .33844 elapsed seconds
Timing for main: time 2016-02-05_13:14:00 on domain   2:    2.56712 elapsed seconds
Timing for main: time 2016-02-05_13:14:00 on domain   1:    8.34196 elapsed seconds
Timing for main: time 2016-02-05_13:14:13 on domain   3:     .30940 elapsed seconds
Timing for main: time 2016-02-05_13:14:26 on domain   3:     .29040 elapsed seconds
Timing for main: time 2016-02-05_13:14:40 on domain   3:     .29092 elapsed seconds
Timing for main: time 2016-02-05_13:14:20 on domain   4:     .34175 elapsed seconds
Timing for main: time 2016-02-05_13:14:40 on domain   4:     .33984 elapsed seconds
Timing for main: time 2016-02-05_13:14:40 on domain   2:    2.59396 elapsed seconds
Timing for main: time 2016-02-05_13:14:53 on domain   3:     .30803 elapsed seconds
Timing for main: time 2016-02-05_13:15:06 on domain   3:     .29156 elapsed seconds
Timing for main: time 2016-02-05_13:15:20 on domain   3:     .29045 elapsed seconds
Timing for main: time 2016-02-05_13:15:00 on domain   4:     .35563 elapsed seconds
Timing for main: time 2016-02-05_13:15:20 on domain   4:     .33880 elapsed seconds
Timing for main: time 2016-02-05_13:15:20 on domain   2:    2.58285 elapsed seconds
Timing for main: time 2016-02-05_13:15:33 on domain   3:     .30860 elapsed seconds
Timing for main: time 2016-02-05_13:15:46 on domain   3:     .28915 elapsed seconds
Timing for main: time 2016-02-05_13:16:00 on domain   3:     .29229 elapsed seconds
Timing for main: time 2016-02-05_13:15:40 on domain   4:     .34363 elapsed seconds
Timing for main: time 2016-02-05_13:16:00 on domain   4:     .34277 elapsed seconds
Timing for main: time 2016-02-05_13:16:00 on domain   2:    2.57706 elapsed seconds
Timing for main: time 2016-02-05_13:16:00 on domain   1:    8.27637 elapsed seconds
Timing for main: time 2016-02-05_13:16:13 on domain   3:     .30913 elapsed seconds
Timing for main: time 2016-02-05_13:16:26 on domain   3:     .28891 elapsed seconds
Timing for main: time 2016-02-05_13:16:40 on domain   3:     .30165 elapsed seconds
Timing for main: time 2016-02-05_13:16:20 on domain   4:     .34581 elapsed seconds
Timing for main: time 2016-02-05_13:16:40 on domain   4:     .34185 elapsed seconds
Timing for main: time 2016-02-05_13:16:40 on domain   2:    2.59635 elapsed seconds
Timing for main: time 2016-02-05_13:16:53 on domain   3:     .30845 elapsed seconds
Timing for main: time 2016-02-05_13:17:06 on domain   3:     .29014 elapsed seconds
Timing for main: time 2016-02-05_13:17:20 on domain   3:     .28954 elapsed seconds
Timing for main: time 2016-02-05_13:17:00 on domain   4:     .34178 elapsed seconds
Timing for main: time 2016-02-05_13:17:20 on domain   4:     .33960 elapsed seconds
Timing for main: time 2016-02-05_13:17:20 on domain   2:    2.57070 elapsed seconds
[...]
Timing for main: time 2016-02-05_17:36:00 on domain   2:    2.60415 elapsed seconds
Timing for main: time 2016-02-05_17:36:00 on domain   1:    8.34055 elapsed seconds
Timing for main: time 2016-02-05_17:36:13 on domain   3:     .31504 elapsed seconds
Timing for main: time 2016-02-05_17:36:26 on domain   3:     .30333 elapsed seconds
Timing for main: time 2016-02-05_17:36:40 on domain   3:     .29173 elapsed seconds
Timing for main: time 2016-02-05_17:36:20 on domain   4:     .34306 elapsed seconds
Timing for main: time 2016-02-05_17:36:40 on domain   4:     .34083 elapsed seconds
Timing for main: time 2016-02-05_17:36:40 on domain   2:    2.60149 elapsed seconds
Timing for main: time 2016-02-05_17:36:53 on domain   3:     .31133 elapsed seconds
Timing for main: time 2016-02-05_17:37:06 on domain   3:     .29288 elapsed seconds
Timing for main: time 2016-02-05_17:37:20 on domain   3:     .30390 elapsed seconds
Timing for main: time 2016-02-05_17:37:00 on domain   4:     .34282 elapsed seconds
Timing for main: time 2016-02-05_17:37:20 on domain   4:     .33840 elapsed seconds
Timing for main: time 2016-02-05_17:37:20 on domain   2:    2.59027 elapsed seconds
Timing for main: time 2016-02-05_17:37:33 on domain   3:     .31259 elapsed seconds
Timing for main: time 2016-02-05_17:37:46 on domain   3:     .29261 elapsed seconds
Timing for main: time 2016-02-05_17:38:00 on domain   3:     .29230 elapsed seconds
Timing for main: time 2016-02-05_17:37:40 on domain   4:     .34255 elapsed seconds
Timing for main: time 2016-02-05_17:38:00 on domain   4:     .33929 elapsed seconds
Timing for main: time 2016-02-05_17:38:00 on domain   2:    2.57850 elapsed seconds
Timing for main: time 2016-02-05_17:38:00 on domain   1:    8.29658 elapsed seconds
Timing for main: time 2016-02-05_17:38:13 on domain   3:     .31130 elapsed seconds
Timing for main: time 2016-02-05_17:38:26 on domain   3:     .29185 elapsed seconds
Timing for main: time 2016-02-05_17:38:40 on domain   3:     .29236 elapsed seconds
Timing for main: time 2016-02-05_17:38:20 on domain   4:     .34361 elapsed seconds
Timing for main: time 2016-02-05_17:38:40 on domain   4:     .33862 elapsed seconds
Timing for main: time 2016-02-05_17:38:40 on domain   2:    2.58514 elapsed seconds
Timing for main: time 2016-02-05_17:38:53 on domain   3:     .31090 elapsed seconds
Timing for main: time 2016-02-05_17:39:06 on domain   3:     .29249 elapsed seconds
Timing for main: time 2016-02-05_17:39:20 on domain   3:     .29219 elapsed seconds
Timing for main: time 2016-02-05_17:39:00 on domain   4:     .34263 elapsed seconds
Timing for main: time 2016-02-05_17:39:20 on domain   4:     .34185 elapsed seconds
Timing for main: time 2016-02-05_17:39:20 on domain   2:    2.58230 elapsed seconds
Timing for main: time 2016-02-05_17:39:33 on domain   3:     .31042 elapsed seconds
Timing for main: time 2016-02-05_17:39:46 on domain   3:     .29303 elapsed seconds
Timing for main: time 2016-02-05_17:40:00 on domain   3:     .29188 elapsed seconds
Timing for main: time 2016-02-05_17:39:40 on domain   4:     .34255 elapsed seconds
Timing for main: time 2016-02-05_17:40:00 on domain   4:     .35399 elapsed seconds
Timing for main: time 2016-02-05_17:40:00 on domain   2:    2.59292 elapsed seconds
Timing for main: time 2016-02-05_17:40:00 on domain   1:    8.28555 elapsed seconds
Timing for main: time 2016-02-05_17:40:13 on domain   3:     .30984 elapsed seconds
Timing for main: time 2016-02-05_17:40:26 on domain   3:     .29567 elapsed seconds
Timing for main: time 2016-02-05_17:40:40 on domain   3:     .29195 elapsed seconds
Timing for main: time 2016-02-05_17:40:20 on domain   4:     .33797 elapsed seconds
Timing for main: time 2016-02-05_17:40:40 on domain   4:     .34045 elapsed seconds
Timing for main: time 2016-02-05_17:40:40 on domain   2:    2.59105 elapsed seconds
Timing for main: time 2016-02-05_17:40:53 on domain   3:     .31070 elapsed seconds
Timing for main: time 2016-02-05_17:41:06 on domain   3:     .29331 elapsed seconds
Timing for main: time 2016-02-05_17:41:20 on domain   3:     .29320 elapsed seconds
Timing for main: time 2016-02-05_17:41:00 on domain   4:     .34378 elapsed seconds
Timing for main: time 2016-02-05_17:41:20 on domain   4:     .33970 elapsed seconds
Timing for main: time 2016-02-05_17:41:20 on domain   2:    2.59642 elapsed seconds
Timing for main: time 2016-02-05_17:41:33 on domain   3:     .31451 elapsed seconds
Timing for main: time 2016-02-05_17:41:46 on domain   3:     .29335 elapsed seconds
Timing for main: time 2016-02-05_17:42:00 on domain   3:     .29152 elapsed seconds
Timing for main: time 2016-02-05_17:41:40 on domain   4:     .34602 elapsed seconds
Timing for main: time 2016-02-05_17:42:00 on domain   4:     .35662 elapsed seconds
Timing for main: time 2016-02-05_17:42:00 on domain   2:    2.60567 elapsed seconds
Timing for main: time 2016-02-05_17:42:00 on domain   1:    8.33023 elapsed seconds
Timing for main: time 2016-02-05_17:42:13 on domain   3:     .31118 elapsed seconds
Timing for main: time 2016-02-05_17:42:26 on domain   3:     .30307 elapsed seconds
Timing for main: time 2016-02-05_17:42:40 on domain   3:     .29428 elapsed seconds
Timing for main: time 2016-02-05_17:42:20 on domain   4:     .34580 elapsed seconds
Timing for main: time 2016-02-05_17:42:40 on domain   4:     .33736 elapsed seconds
Timing for main: time 2016-02-05_17:42:40 on domain   2:    2.60025 elapsed seconds
Timing for main: time 2016-02-05_17:42:53 on domain   3:     .35926 elapsed seconds
Timing for main: time 2016-02-05_17:43:06 on domain   3:     .34535 elapsed seconds
Timing for main: time 2016-02-05_17:43:20 on domain   3:     .29413 elapsed seconds
Timing for main: time 2016-02-05_17:43:00 on domain   4:     .34078 elapsed seconds
Timing for main: time 2016-02-05_17:43:20 on domain   4:     .34089 elapsed seconds
Timing for main: time 2016-02-05_17:43:20 on domain   2:    2.68071 elapsed seconds
Timing for main: time 2016-02-05_17:43:33 on domain   3:     .31385 elapsed seconds
Timing for main: time 2016-02-05_17:43:46 on domain   3:     .31071 elapsed seconds
Timing for main: time 2016-02-05_17:44:00 on domain   3:     .29303 elapsed seconds
Timing for main: time 2016-02-05_17:43:40 on domain   4:     .34111 elapsed seconds
Timing for main: time 2016-02-05_17:44:00 on domain   4:     .34217 elapsed seconds
Timing for main: time 2016-02-05_17:44:00 on domain   2:    2.60267 elapsed seconds
Timing for main: time 2016-02-05_17:44:00 on domain   1:    8.41069 elapsed seconds
Timing for main: time 2016-02-05_17:44:13 on domain   3:     .31106 elapsed seconds
Timing for main: time 2016-02-05_17:44:26 on domain   3:     .29283 elapsed seconds
Timing for main: time 2016-02-05_17:44:40 on domain   3:     .29285 elapsed seconds
Timing for main: time 2016-02-05_17:44:20 on domain   4:     .34181 elapsed seconds
Timing for main: time 2016-02-05_17:44:40 on domain   4:     .34037 elapsed seconds
Timing for main: time 2016-02-05_17:44:40 on domain   2:    2.58746 elapsed seconds
Timing for main: time 2016-02-05_17:44:53 on domain   3:     .31157 elapsed seconds
Timing for main: time 2016-02-05_17:45:06 on domain   3:     .29243 elapsed seconds
Timing for main: time 2016-02-05_17:45:20 on domain   3:     .29193 elapsed seconds
Timing for main: time 2016-02-05_17:45:00 on domain   4:     .35485 elapsed seconds
Timing for main: time 2016-02-05_17:45:20 on domain   4:     .34466 elapsed seconds
Timing for main: time 2016-02-05_17:45:20 on domain   2:    2.59707 elapsed seconds
Timing for main: time 2016-02-05_17:45:33 on domain   3:     .31099 elapsed seconds
Timing for main: time 2016-02-05_17:45:46 on domain   3:     .29157 elapsed seconds
Timing for main: time 2016-02-05_17:46:00 on domain   3:     .29224 elapsed seconds
Timing for main: time 2016-02-05_17:45:40 on domain   4:     .34298 elapsed seconds
Timing for main: time 2016-02-05_17:46:00 on domain   4:     .34118 elapsed seconds
Timing for main: time 2016-02-05_17:46:00 on domain   2:    2.57492 elapsed seconds
Timing for main: time 2016-02-05_17:46:00 on domain   1:    8.28663 elapsed seconds
Timing for main: time 2016-02-05_17:46:13 on domain   3:     .31180 elapsed seconds
Timing for main: time 2016-02-05_17:46:26 on domain   3:     .29196 elapsed seconds
Timing for main: time 2016-02-05_17:46:40 on domain   3:     .29158 elapsed seconds
Timing for main: time 2016-02-05_17:46:20 on domain   4:     .34146 elapsed seconds
Timing for main: time 2016-02-05_17:46:40 on domain   4:     .34195 elapsed seconds
Timing for main: time 2016-02-05_17:46:40 on domain   2:    2.60243 elapsed seconds
Timing for main: time 2016-02-05_17:46:53 on domain   3:     .31062 elapsed seconds
Timing for main: time 2016-02-05_17:47:06 on domain   3:     .29178 elapsed seconds
Timing for main: time 2016-02-05_17:47:20 on domain   3:     .29261 elapsed seconds
Timing for main: time 2016-02-05_17:47:00 on domain   4:     .34220 elapsed seconds
Timing for main: time 2016-02-05_17:47:20 on domain   4:     .34017 elapsed seconds
Timing for main: time 2016-02-05_17:47:20 on domain   2:    2.57987 elapsed seconds
Timing for main: time 2016-02-05_17:47:33 on domain   3:     .32447 elapsed seconds
Timing for main: time 2016-02-05_17:47:46 on domain   3:     .29335 elapsed seconds
Timing for main: time 2016-02-05_17:48:00 on domain   3:     .29248 elapsed seconds
Timing for main: time 2016-02-05_17:47:40 on domain   4:     .34073 elapsed seconds
Timing for main: time 2016-02-05_17:48:00 on domain   4:     .34002 elapsed seconds
Timing for main: time 2016-02-05_17:48:00 on domain   2:    2.59524 elapsed seconds
Timing for main: time 2016-02-05_17:48:00 on domain   1:    8.31345 elapsed seconds
Timing for main: time 2016-02-05_17:48:13 on domain   3:     .31765 elapsed seconds
Timing for main: time 2016-02-05_17:48:26 on domain   3:     .29181 elapsed seconds
Timing for main: time 2016-02-05_17:48:40 on domain   3:     .29632 elapsed seconds
Timing for main: time 2016-02-05_17:48:20 on domain   4:     .34071 elapsed seconds
Timing for main: time 2016-02-05_17:48:40 on domain   4:     .34094 elapsed seconds
Timing for main: time 2016-02-05_17:48:40 on domain   2:    2.62819 elapsed seconds
Timing for main: time 2016-02-05_17:48:53 on domain   3:     .30973 elapsed seconds
Timing for main: time 2016-02-05_17:49:06 on domain   3:     .29246 elapsed seconds
Timing for main: time 2016-02-05_17:49:20 on domain   3:     .29532 elapsed seconds
Timing for main: time 2016-02-05_17:49:00 on domain   4:     .34065 elapsed seconds
Timing for main: time 2016-02-05_17:49:20 on domain   4:     .34113 elapsed seconds
Timing for main: time 2016-02-05_17:49:20 on domain   2:    2.58723 elapsed seconds
Timing for main: time 2016-02-05_17:49:33 on domain   3:     .31009 elapsed seconds
Timing for main: time 2016-02-05_17:49:46 on domain   3:     .29676 elapsed seconds
Timing for main: time 2016-02-05_17:50:00 on domain   3:     .29151 elapsed seconds
Timing for main: time 2016-02-05_17:49:40 on domain   4:     .34435 elapsed seconds
Timing for main: time 2016-02-05_17:50:00 on domain   4:     .35439 elapsed seconds
Timing for main: time 2016-02-05_17:50:00 on domain   2:    2.60082 elapsed seconds
Timing for main: time 2016-02-05_17:50:00 on domain   1:    8.34422 elapsed seconds
Timing for main: time 2016-02-05_17:50:13 on domain   3:     .31070 elapsed seconds
Timing for main: time 2016-02-05_17:50:26 on domain   3:     .29340 elapsed seconds
Timing for main: time 2016-02-05_17:50:40 on domain   3:     .29169 elapsed seconds
Timing for main: time 2016-02-05_17:50:20 on domain   4:     .34134 elapsed seconds
Timing for main: time 2016-02-05_17:50:40 on domain   4:     .33998 elapsed seconds
Timing for main: time 2016-02-05_17:50:40 on domain   2:    2.58720 elapsed seconds
Timing for main: time 2016-02-05_17:50:53 on domain   3:     .31147 elapsed seconds
Timing for main: time 2016-02-05_17:51:06 on domain   3:     .29321 elapsed seconds
Timing for main: time 2016-02-05_17:51:20 on domain   3:     .29209 elapsed seconds
Timing for main: time 2016-02-05_17:51:00 on domain   4:     .34064 elapsed seconds
Timing for main: time 2016-02-05_17:51:20 on domain   4:     .34018 elapsed seconds
Timing for main: time 2016-02-05_17:51:20 on domain   2:    2.58035 elapsed seconds
Timing for main: time 2016-02-05_17:51:33 on domain   3:     .31115 elapsed seconds
Timing for main: time 2016-02-05_17:51:46 on domain   3:     .29191 elapsed seconds
Timing for main: time 2016-02-05_17:52:00 on domain   3:     .29167 elapsed seconds
Timing for main: time 2016-02-05_17:51:40 on domain   4:     .34091 elapsed seconds
Timing for main: time 2016-02-05_17:52:00 on domain   4:     .34076 elapsed seconds
Timing for main: time 2016-02-05_17:52:00 on domain   2:    2.59351 elapsed seconds
Timing for main: time 2016-02-05_17:52:00 on domain   1:    8.28814 elapsed seconds
Timing for main: time 2016-02-05_17:52:13 on domain   3:     .31182 elapsed seconds
Timing for main: time 2016-02-05_17:52:26 on domain   3:     .29285 elapsed seconds
Timing for main: time 2016-02-05_17:52:40 on domain   3:     .30381 elapsed seconds
Timing for main: time 2016-02-05_17:52:20 on domain   4:     .34051 elapsed seconds
Timing for main: time 2016-02-05_17:52:40 on domain   4:     .34104 elapsed seconds
Timing for main: time 2016-02-05_17:52:40 on domain   2:    2.60052 elapsed seconds
Timing for main: time 2016-02-05_17:52:53 on domain   3:     .31086 elapsed seconds
Timing for main: time 2016-02-05_17:53:06 on domain   3:     .29224 elapsed seconds
Timing for main: time 2016-02-05_17:53:20 on domain   3:     .29204 elapsed seconds
Timing for main: time 2016-02-05_17:53:00 on domain   4:     .34141 elapsed seconds
Timing for main: time 2016-02-05_17:53:20 on domain   4:     .34026 elapsed seconds
Timing for main: time 2016-02-05_17:53:20 on domain   2:    2.57789 elapsed seconds
Timing for main: time 2016-02-05_17:53:33 on domain   3:     .31205 elapsed seconds
Timing for main: time 2016-02-05_17:53:46 on domain   3:     .29132 elapsed seconds
Timing for main: time 2016-02-05_17:54:00 on domain   3:     .29277 elapsed seconds
Timing for main: time 2016-02-05_17:53:40 on domain   4:     .34094 elapsed seconds
Timing for main: time 2016-02-05_17:54:00 on domain   4:     .34048 elapsed seconds
Timing for main: time 2016-02-05_17:54:00 on domain   2:    2.58149 elapsed seconds
Timing for main: time 2016-02-05_17:54:00 on domain   1:    8.29695 elapsed seconds
Timing for main: time 2016-02-05_17:54:13 on domain   3:     .31157 elapsed seconds
Timing for main: time 2016-02-05_17:54:26 on domain   3:     .29253 elapsed seconds
Timing for main: time 2016-02-05_17:54:40 on domain   3:     .29444 elapsed seconds
Timing for main: time 2016-02-05_17:54:20 on domain   4:     .34080 elapsed seconds
Timing for main: time 2016-02-05_17:54:40 on domain   4:     .34020 elapsed seconds
Timing for main: time 2016-02-05_17:54:40 on domain   2:    2.59008 elapsed seconds
Timing for main: time 2016-02-05_17:54:53 on domain   3:     .31072 elapsed seconds
Timing for main: time 2016-02-05_17:55:06 on domain   3:     .29281 elapsed seconds
Timing for main: time 2016-02-05_17:55:20 on domain   3:     .29114 elapsed seconds
Timing for main: time 2016-02-05_17:55:00 on domain   4:     .35398 elapsed seconds
Timing for main: time 2016-02-05_17:55:20 on domain   4:     .34094 elapsed seconds
Timing for main: time 2016-02-05_17:55:20 on domain   2:    2.59651 elapsed seconds
Timing for main: time 2016-02-05_17:55:33 on domain   3:     .31242 elapsed seconds
Timing for main: time 2016-02-05_17:55:46 on domain   3:     .29245 elapsed seconds
Timing for main: time 2016-02-05_17:56:00 on domain   3:     .29203 elapsed seconds
Timing for main: time 2016-02-05_17:55:40 on domain   4:     .34211 elapsed seconds
Timing for main: time 2016-02-05_17:56:00 on domain   4:     .34040 elapsed seconds
Timing for main: time 2016-02-05_17:56:00 on domain   2:    2.58072 elapsed seconds
Timing for main: time 2016-02-05_17:56:00 on domain   1:    8.29418 elapsed seconds
Timing for main: time 2016-02-05_17:56:13 on domain   3:     .31125 elapsed seconds
Timing for main: time 2016-02-05_17:56:26 on domain   3:     .29230 elapsed seconds
Timing for main: time 2016-02-05_17:56:40 on domain   3:     .29200 elapsed seconds
Timing for main: time 2016-02-05_17:56:20 on domain   4:     .34036 elapsed seconds
Timing for main: time 2016-02-05_17:56:40 on domain   4:     .34147 elapsed seconds
Timing for main: time 2016-02-05_17:56:40 on domain   2:    2.58696 elapsed seconds
Timing for main: time 2016-02-05_17:56:53 on domain   3:     .31198 elapsed seconds
Timing for main: time 2016-02-05_17:57:06 on domain   3:     .29108 elapsed seconds
Timing for main: time 2016-02-05_17:57:20 on domain   3:     .29252 elapsed seconds
Timing for main: time 2016-02-05_17:57:00 on domain   4:     .34301 elapsed seconds
Timing for main: time 2016-02-05_17:57:20 on domain   4:     .33881 elapsed seconds
Timing for main: time 2016-02-05_17:57:20 on domain   2:    2.59437 elapsed seconds
Timing for main: time 2016-02-05_17:57:33 on domain   3:     .31052 elapsed seconds
Timing for main: time 2016-02-05_17:57:46 on domain   3:     .30369 elapsed seconds
Timing for main: time 2016-02-05_17:58:00 on domain   3:     .29231 elapsed seconds
Timing for main: time 2016-02-05_17:57:40 on domain   4:     .34165 elapsed seconds
Timing for main: time 2016-02-05_17:58:00 on domain   4:     .34117 elapsed seconds
Timing for main: time 2016-02-05_17:58:00 on domain   2:    2.59095 elapsed seconds
Timing for main: time 2016-02-05_17:58:00 on domain   1:    8.30427 elapsed seconds
  photolysis_driver: called for domain  1
Timing for main: time 2016-02-05_17:58:13 on domain   3:     .31183 elapsed seconds
Timing for main: time 2016-02-05_17:58:26 on domain   3:     .29147 elapsed seconds
Timing for main: time 2016-02-05_17:58:40 on domain   3:     .28747 elapsed seconds
Timing for main: time 2016-02-05_17:58:20 on domain   4:     .34147 elapsed seconds
Timing for main: time 2016-02-05_17:58:40 on domain   4:     .34030 elapsed seconds
Timing for main: time 2016-02-05_17:58:40 on domain   2:    2.69446 elapsed seconds
Timing for main: time 2016-02-05_17:58:53 on domain   3:     .30994 elapsed seconds
Timing for main: time 2016-02-05_17:59:06 on domain   3:     .29258 elapsed seconds
Timing for main: time 2016-02-05_17:59:20 on domain   3:     .29390 elapsed seconds
Timing for main: time 2016-02-05_17:59:00 on domain   4:     .34126 elapsed seconds
Timing for main: time 2016-02-05_17:59:20 on domain   4:     .34070 elapsed seconds
Timing for main: time 2016-02-05_17:59:20 on domain   2:    2.58178 elapsed seconds
  photolysis_driver: called for domain  2
Timing for main: time 2016-02-05_17:59:33 on domain   3:     .31050 elapsed seconds
Timing for main: time 2016-02-05_17:59:46 on domain   3:     .29129 elapsed seconds
  photolysis_driver: called for domain  3
Timing for main: time 2016-02-05_18:00:00 on domain   3:    1.49943 elapsed seconds
Timing for Writing wrfout_d03_2016-02-05_18:00:00 for domain        3:    2.33579 elapsed seconds
Timing for main: time 2016-02-05_17:59:40 on domain   4:     .42331 elapsed seconds
  photolysis_driver: called for domain  4
Timing for main: time 2016-02-05_18:00:00 on domain   4:    1.85719 elapsed seconds
Timing for Writing wrfout_d04_2016-02-05_18:00:00 for domain        4:    2.59084 elapsed seconds
Timing for main: time 2016-02-05_18:00:00 on domain   2:   11.81703 elapsed seconds
Timing for Writing wrfout_d02_2016-02-05_18:00:00 for domain        2:    3.84245 elapsed seconds
Timing for main: time 2016-02-05_18:00:00 on domain   1:   22.30045 elapsed seconds
Timing for Writing wrfout_d01_2016-02-05_18:00:00 for domain        1:    3.29981 elapsed seconds
 d01 2016-02-05_18:00:00 wrf: SUCCESS COMPLETE WRF
