taskid: 0 hostname: p10a51.pbm.ihost.com
  Ntasks in X  12 , ntasks in Y  15
 Setting blank km_opt entries to domain #1 values.
  --> The km_opt entry in the namelist.input is now max_domains.
 Setting blank diff_opt entries to domain #1 values.
  --> The diff_opt entry in the namelist.input is now max_domains.
 --- WARNING: traj_opt is zero, but num_traj is not zero; setting num_traj to zero.
 --- NOTE: hypsometric_opt is 2, setting adjust_heights = F
 --- NOTE: sst_update is 0, setting io_form_auxinput4 = 0 and auxinput4_interval = 0 for all domains
 --- NOTE: sst_update is 0, setting io_form_auxinput4 = 0 and auxinput4_interval = 0 for all domains
 --- NOTE: sst_update is 0, setting io_form_auxinput4 = 0 and auxinput4_interval = 0 for all domains
 --- NOTE: sst_update is 0, setting io_form_auxinput4 = 0 and auxinput4_interval = 0 for all domains
 --- NOTE: grid_fdda is 0 for domain      1, setting gfdda interval and ending time to 0 for that domain.
 --- NOTE: both grid_sfdda and pxlsm_soil_nudge are 0 for domain      1, setting sgfdda interval and ending time to 0 for that domain.
 --- NOTE: obs_nudge_opt is 0 for domain      1, setting obs nudging interval and ending time to 0 for that domain.
 --- NOTE: grid_fdda is 0 for domain      2, setting gfdda interval and ending time to 0 for that domain.
 --- NOTE: both grid_sfdda and pxlsm_soil_nudge are 0 for domain      2, setting sgfdda interval and ending time to 0 for that domain.
 --- NOTE: obs_nudge_opt is 0 for domain      2, setting obs nudging interval and ending time to 0 for that domain.
 --- NOTE: grid_fdda is 0 for domain      3, setting gfdda interval and ending time to 0 for that domain.
 --- NOTE: both grid_sfdda and pxlsm_soil_nudge are 0 for domain      3, setting sgfdda interval and ending time to 0 for that domain.
 --- NOTE: obs_nudge_opt is 0 for domain      3, setting obs nudging interval and ending time to 0 for that domain.
 --- NOTE: grid_fdda is 0 for domain      4, setting gfdda interval and ending time to 0 for that domain.
 --- NOTE: both grid_sfdda and pxlsm_soil_nudge are 0 for domain      4, setting sgfdda interval and ending time to 0 for that domain.
 --- NOTE: obs_nudge_opt is 0 for domain      4, setting obs nudging interval and ending time to 0 for that domain.
 bl_pbl_physics /= 4, implies mfshconv must be 0, resetting
 --- NOTE: num_soil_layers has been set to      4
 WRF V3.6 MODEL
  *************************************
  Parent domain
  ids,ide,jds,jde  1 271 1 181
  ims,ime,jms,jme  -4 30 -4 19
  ips,ipe,jps,jpe  1 23 1 12
  *************************************
 DYNAMICS OPTION: Eulerian Mass Coordinate
    alloc_space_field: domain  1 ,  85786064  bytes allocated
   med_initialdata_input: calling input_input
Timing for processing wrfinput file (stream 0) for domain        1:    3.87206 elapsed seconds
 INPUT LandUse = "USGS"
  LANDUSE TYPE = "USGS" FOUND 33  CATEGORIES 2  SEASONS WATER CATEGORY =  16  SNOW CATEGORY =  24
 INITIALIZE THREE Noah LSM RELATED TABLES
  LANDUSE TYPE = USGS FOUND 27  CATEGORIES
  INPUT SOIL TEXTURE CLASSIFICATION = STAS
  SOIL TEXTURE CLASSIFICATION = STAS FOUND 19  CATEGORIES
 *********************************************************************
 *             PROGRAM:WRF/CHEM V3.6 MODEL
 *                                                                   *
 *    PLEASE REPORT ANY BUGS TO WRF/CHEM HELP at                     *
 *                                                                   *
 *              wrfchemhelp.gsd@noaa.gov                             *
 *                                                                   *
 *********************************************************************
 WARNING: dust option 1 currently works only with the GOCART aerosol option.
 WARNING: sea salt option 1 currently works only with the GOCART aerosol option.
  *************************************
  Nesting domain
  ids,ide,jds,jde  1 361 1 253
  ims,ime,jms,jme  -4 42 -4 27
  ips,ipe,jps,jpe  1 30 1 17
  INTERMEDIATE domain
  ids,ide,jds,jde  74 199 47 136
  ims,ime,jms,jme  69 95 42 64
  ips,ipe,jps,jpe  72 85 45 54
  *************************************
 d01 2016-02-05_12:00:00  alloc_space_field: domain  2 ,  149631324  bytes allocated
 d01 2016-02-05_12:00:00  alloc_space_field: domain  2 ,  7822116  bytes allocated
 d01 2016-02-05_12:00:00 *** Initializing nest domain # 2 from an input file. ***
 d01 2016-02-05_12:00:00 med_initialdata_input: calling input_input
Timing for processing wrfinput file (stream 0) for domain        2:    7.08192 elapsed seconds
 INPUT LandUse = "USGS"
  LANDUSE TYPE = "USGS" FOUND 33  CATEGORIES 2  SEASONS WATER CATEGORY =  16  SNOW CATEGORY =  24
 INITIALIZE THREE Noah LSM RELATED TABLES
  LANDUSE TYPE = USGS FOUND 27  CATEGORIES
  INPUT SOIL TEXTURE CLASSIFICATION = STAS
  SOIL TEXTURE CLASSIFICATION = STAS FOUND 19  CATEGORIES
 *********************************************************************
 *             PROGRAM:WRF/CHEM V3.6 MODEL
 *                                                                   *
 *    PLEASE REPORT ANY BUGS TO WRF/CHEM HELP at                     *
 *                                                                   *
 *              wrfchemhelp.gsd@noaa.gov                             *
 *                                                                   *
 *********************************************************************
 WARNING: dust option 1 currently works only with the GOCART aerosol option.
 WARNING: sea salt option 1 currently works only with the GOCART aerosol option.
 INPUT LandUse = "USGS"
  LANDUSE TYPE = "USGS" FOUND 33  CATEGORIES 2  SEASONS WATER CATEGORY =  16  SNOW CATEGORY =  24
 INITIALIZE THREE Noah LSM RELATED TABLES
  LANDUSE TYPE = USGS FOUND 27  CATEGORIES
  INPUT SOIL TEXTURE CLASSIFICATION = STAS
  SOIL TEXTURE CLASSIFICATION = STAS FOUND 19  CATEGORIES
 *********************************************************************
 *             PROGRAM:WRF/CHEM V3.6 MODEL
 *                                                                   *
 *    PLEASE REPORT ANY BUGS TO WRF/CHEM HELP at                     *
 *                                                                   *
 *              wrfchemhelp.gsd@noaa.gov                             *
 *                                                                   *
 *********************************************************************
 WARNING: dust option 1 currently works only with the GOCART aerosol option.
 WARNING: sea salt option 1 currently works only with the GOCART aerosol option.
 INPUT LandUse = "USGS"
  LANDUSE TYPE = "USGS" FOUND 33  CATEGORIES 2  SEASONS WATER CATEGORY =  16  SNOW CATEGORY =  24
 INITIALIZE THREE Noah LSM RELATED TABLES
  LANDUSE TYPE = USGS FOUND 27  CATEGORIES
  INPUT SOIL TEXTURE CLASSIFICATION = STAS
  SOIL TEXTURE CLASSIFICATION = STAS FOUND 19  CATEGORIES
 *********************************************************************
 *             PROGRAM:WRF/CHEM V3.6 MODEL
 *                                                                   *
 *    PLEASE REPORT ANY BUGS TO WRF/CHEM HELP at                     *
 *                                                                   *
 *              wrfchemhelp.gsd@noaa.gov                             *
 *                                                                   *
 *********************************************************************
 WARNING: dust option 1 currently works only with the GOCART aerosol option.
 WARNING: sea salt option 1 currently works only with the GOCART aerosol option.
Timing for Writing wrfout_d01_2016-02-05_12:00:00 for domain        1:    2.02435 elapsed seconds
  mediation_integrate: med_read_wrf_chem_emissions: Open file wrfchemi_12z_d01
  HOURLY EMISSIONS UPDATE TIME         .0        .0
 mediation_integrate: med_read_wrf_chem_emissions: Read emissions for time 2016-02-05_12:00:00
 **WARNING** Time in input file not being checked **WARNING**
Timing for processing lateral boundary for domain        1:    3.24665 elapsed seconds
  Tile Strategy is not specified. Assuming 1D-Y
 WRF TILE   1 IS      1 IE     23 JS      1 JE     12
 WRF NUMBER OF TILES =   1
  photolysis_driver: called for domain  1
  *************************************
  Nesting domain
  ids,ide,jds,jde  1 307 1 241
  ims,ime,jms,jme  -4 36 -4 27
  ips,ipe,jps,jpe  1 26 1 16
  INTERMEDIATE domain
  ids,ide,jds,jde  124 231 35 120
  ims,ime,jms,jme  119 144 30 51
  ips,ipe,jps,jpe  122 134 33 41
  *************************************
 d02 2016-02-05_12:00:00  alloc_space_field: domain  3 ,  131137840  bytes allocated
 d02 2016-02-05_12:00:00  alloc_space_field: domain  3 ,  7204912  bytes allocated
 d02 2016-02-05_12:00:00 *** Initializing nest domain # 3 from an input file. ***
 d02 2016-02-05_12:00:00 med_initialdata_input: calling input_input
Timing for processing wrfinput file (stream 0) for domain        3:    5.90024 elapsed seconds
 INPUT LandUse = "USGS"
  LANDUSE TYPE = "USGS" FOUND 33  CATEGORIES 2  SEASONS WATER CATEGORY =  16  SNOW CATEGORY =  24
 INITIALIZE THREE Noah LSM RELATED TABLES
  LANDUSE TYPE = USGS FOUND 27  CATEGORIES
  INPUT SOIL TEXTURE CLASSIFICATION = STAS
  SOIL TEXTURE CLASSIFICATION = STAS FOUND 19  CATEGORIES
 *********************************************************************
 *             PROGRAM:WRF/CHEM V3.6 MODEL
 *                                                                   *
 *    PLEASE REPORT ANY BUGS TO WRF/CHEM HELP at                     *
 *                                                                   *
 *              wrfchemhelp.gsd@noaa.gov                             *
 *                                                                   *
 *********************************************************************
 WARNING: dust option 1 currently works only with the GOCART aerosol option.
 WARNING: sea salt option 1 currently works only with the GOCART aerosol option.
 INPUT LandUse = "USGS"
  LANDUSE TYPE = "USGS" FOUND 33  CATEGORIES 2  SEASONS WATER CATEGORY =  16  SNOW CATEGORY =  24
 INITIALIZE THREE Noah LSM RELATED TABLES
  LANDUSE TYPE = USGS FOUND 27  CATEGORIES
  INPUT SOIL TEXTURE CLASSIFICATION = STAS
  SOIL TEXTURE CLASSIFICATION = STAS FOUND 19  CATEGORIES
 *********************************************************************
 *             PROGRAM:WRF/CHEM V3.6 MODEL
 *                                                                   *
 *    PLEASE REPORT ANY BUGS TO WRF/CHEM HELP at                     *
 *                                                                   *
 *              wrfchemhelp.gsd@noaa.gov                             *
 *                                                                   *
 *********************************************************************
 WARNING: dust option 1 currently works only with the GOCART aerosol option.
 WARNING: sea salt option 1 currently works only with the GOCART aerosol option.
 INPUT LandUse = "USGS"
  LANDUSE TYPE = "USGS" FOUND 33  CATEGORIES 2  SEASONS WATER CATEGORY =  16  SNOW CATEGORY =  24
 INITIALIZE THREE Noah LSM RELATED TABLES
  LANDUSE TYPE = USGS FOUND 27  CATEGORIES
  INPUT SOIL TEXTURE CLASSIFICATION = STAS
  SOIL TEXTURE CLASSIFICATION = STAS FOUND 19  CATEGORIES
 *********************************************************************
 *             PROGRAM:WRF/CHEM V3.6 MODEL
 *                                                                   *
 *    PLEASE REPORT ANY BUGS TO WRF/CHEM HELP at                     *
 *                                                                   *
 *              wrfchemhelp.gsd@noaa.gov                             *
 *                                                                   *
 *********************************************************************
 WARNING: dust option 1 currently works only with the GOCART aerosol option.
 WARNING: sea salt option 1 currently works only with the GOCART aerosol option.
  *************************************
  Nesting domain
  ids,ide,jds,jde  1 217 1 388
  ims,ime,jms,jme  -4 30 -4 36
  ips,ipe,jps,jpe  1 18 1 26
  INTERMEDIATE domain
  ids,ide,jds,jde  225 302 83 217
  ims,ime,jms,jme  220 242 78 103
  ips,ipe,jps,jpe  223 232 81 93
  *************************************
 d02 2016-02-05_12:00:00  alloc_space_field: domain  4 ,  142857636  bytes allocated
 d02 2016-02-05_12:00:00 *** Initializing nest domain # 4 from an input file. ***
 d02 2016-02-05_12:00:00 med_initialdata_input: calling input_input
Timing for processing wrfinput file (stream 0) for domain        4:    9.17275 elapsed seconds
 INPUT LandUse = "USGS"
  LANDUSE TYPE = "USGS" FOUND 33  CATEGORIES 2  SEASONS WATER CATEGORY =  16  SNOW CATEGORY =  24
 INITIALIZE THREE Noah LSM RELATED TABLES
  LANDUSE TYPE = USGS FOUND 27  CATEGORIES
  INPUT SOIL TEXTURE CLASSIFICATION = STAS
  SOIL TEXTURE CLASSIFICATION = STAS FOUND 19  CATEGORIES
 *********************************************************************
 *             PROGRAM:WRF/CHEM V3.6 MODEL
 *                                                                   *
 *    PLEASE REPORT ANY BUGS TO WRF/CHEM HELP at                     *
 *                                                                   *
 *              wrfchemhelp.gsd@noaa.gov                             *
 *                                                                   *
 *********************************************************************
 WARNING: dust option 1 currently works only with the GOCART aerosol option.
 WARNING: sea salt option 1 currently works only with the GOCART aerosol option.
 INPUT LandUse = "USGS"
  LANDUSE TYPE = "USGS" FOUND 33  CATEGORIES 2  SEASONS WATER CATEGORY =  16  SNOW CATEGORY =  24
 INITIALIZE THREE Noah LSM RELATED TABLES
  LANDUSE TYPE = USGS FOUND 27  CATEGORIES
  INPUT SOIL TEXTURE CLASSIFICATION = STAS
  SOIL TEXTURE CLASSIFICATION = STAS FOUND 19  CATEGORIES
 *********************************************************************
 *             PROGRAM:WRF/CHEM V3.6 MODEL
 *                                                                   *
 *    PLEASE REPORT ANY BUGS TO WRF/CHEM HELP at                     *
 *                                                                   *
 *              wrfchemhelp.gsd@noaa.gov                             *
 *                                                                   *
 *********************************************************************
 WARNING: dust option 1 currently works only with the GOCART aerosol option.
 WARNING: sea salt option 1 currently works only with the GOCART aerosol option.
 INPUT LandUse = "USGS"
  LANDUSE TYPE = "USGS" FOUND 33  CATEGORIES 2  SEASONS WATER CATEGORY =  16  SNOW CATEGORY =  24
 INITIALIZE THREE Noah LSM RELATED TABLES
  LANDUSE TYPE = USGS FOUND 27  CATEGORIES
  INPUT SOIL TEXTURE CLASSIFICATION = STAS
  SOIL TEXTURE CLASSIFICATION = STAS FOUND 19  CATEGORIES
 *********************************************************************
 *             PROGRAM:WRF/CHEM V3.6 MODEL
 *                                                                   *
 *    PLEASE REPORT ANY BUGS TO WRF/CHEM HELP at                     *
 *                                                                   *
 *              wrfchemhelp.gsd@noaa.gov                             *
 *                                                                   *
 *********************************************************************
 WARNING: dust option 1 currently works only with the GOCART aerosol option.
 WARNING: sea salt option 1 currently works only with the GOCART aerosol option.
Timing for Writing wrfout_d02_2016-02-05_12:00:00 for domain        2:    2.05588 elapsed seconds
  mediation_integrate: med_read_wrf_chem_emissions: Open file wrfchemi_12z_d02
  HOURLY EMISSIONS UPDATE TIME         .0        .0
 mediation_integrate: med_read_wrf_chem_emissions: Read emissions for time 2016-02-05_12:00:00
 **WARNING** Time in input file not being checked **WARNING**
  Tile Strategy is not specified. Assuming 1D-Y
 WRF TILE   1 IS      1 IE     30 JS      1 JE     17
 WRF NUMBER OF TILES =   1
  photolysis_driver: called for domain  2
Timing for Writing wrfout_d03_2016-02-05_12:00:00 for domain        3:    2.25269 elapsed seconds
  mediation_integrate: med_read_wrf_chem_emissions: Open file wrfchemi_12z_d03
  HOURLY EMISSIONS UPDATE TIME         .0        .0
 mediation_integrate: med_read_wrf_chem_emissions: Read emissions for time 2016-02-05_12:00:00
 **WARNING** Time in input file not being checked **WARNING**
  Tile Strategy is not specified. Assuming 1D-Y
 WRF TILE   1 IS      1 IE     26 JS      1 JE     16
 WRF NUMBER OF TILES =   1
  photolysis_driver: called for domain  3
Timing for main: time 2016-02-05_12:00:13 on domain   3:    5.07793 elapsed seconds
Timing for main: time 2016-02-05_12:00:26 on domain   3:     .16693 elapsed seconds
Timing for main: time 2016-02-05_12:00:40 on domain   3:     .16428 elapsed seconds
Timing for Writing wrfout_d04_2016-02-05_12:00:00 for domain        4:    2.06475 elapsed seconds
  mediation_integrate: med_read_wrf_chem_emissions: Open file wrfchemi_12z_d04
  HOURLY EMISSIONS UPDATE TIME         .0        .0
 mediation_integrate: med_read_wrf_chem_emissions: Read emissions for time 2016-02-05_12:00:00
 **WARNING** Time in input file not being checked **WARNING**
  Tile Strategy is not specified. Assuming 1D-Y
 WRF TILE   1 IS      1 IE     18 JS      1 JE     26
 WRF NUMBER OF TILES =   1
  photolysis_driver: called for domain  4
Timing for main: time 2016-02-05_12:00:20 on domain   4:    4.96729 elapsed seconds
Timing for main: time 2016-02-05_12:00:40 on domain   4:     .22238 elapsed seconds
Timing for main: time 2016-02-05_12:00:40 on domain   2:   35.42986 elapsed seconds
Timing for main: time 2016-02-05_12:00:53 on domain   3:     .17860 elapsed seconds
Timing for main: time 2016-02-05_12:01:06 on domain   3:     .17217 elapsed seconds
Timing for main: time 2016-02-05_12:01:20 on domain   3:     .16954 elapsed seconds
Timing for main: time 2016-02-05_12:01:00 on domain   4:     .21312 elapsed seconds
Timing for main: time 2016-02-05_12:01:20 on domain   4:     .21663 elapsed seconds
Timing for main: time 2016-02-05_12:01:20 on domain   2:    1.62575 elapsed seconds
Timing for main: time 2016-02-05_12:01:33 on domain   3:     .17692 elapsed seconds
Timing for main: time 2016-02-05_12:01:46 on domain   3:     .17077 elapsed seconds
Timing for main: time 2016-02-05_12:02:00 on domain   3:     .16978 elapsed seconds
Timing for main: time 2016-02-05_12:01:40 on domain   4:     .20597 elapsed seconds
Timing for main: time 2016-02-05_12:02:00 on domain   4:     .20768 elapsed seconds
Timing for main: time 2016-02-05_12:02:00 on domain   2:    1.64631 elapsed seconds
Timing for main: time 2016-02-05_12:02:00 on domain   1:   55.46463 elapsed seconds
Timing for main: time 2016-02-05_12:02:13 on domain   3:     .17655 elapsed seconds
Timing for main: time 2016-02-05_12:02:26 on domain   3:     .17187 elapsed seconds
Timing for main: time 2016-02-05_12:02:40 on domain   3:     .16447 elapsed seconds
Timing for main: time 2016-02-05_12:02:20 on domain   4:     .20134 elapsed seconds
Timing for main: time 2016-02-05_12:02:40 on domain   4:     .19591 elapsed seconds
Timing for main: time 2016-02-05_12:02:40 on domain   2:    1.63789 elapsed seconds
Timing for main: time 2016-02-05_12:02:53 on domain   3:     .17097 elapsed seconds
Timing for main: time 2016-02-05_12:03:06 on domain   3:     .16262 elapsed seconds
Timing for main: time 2016-02-05_12:03:20 on domain   3:     .16245 elapsed seconds
Timing for main: time 2016-02-05_12:03:00 on domain   4:     .20215 elapsed seconds
Timing for main: time 2016-02-05_12:03:20 on domain   4:     .19588 elapsed seconds
Timing for main: time 2016-02-05_12:03:20 on domain   2:    1.59449 elapsed seconds
Timing for main: time 2016-02-05_12:03:33 on domain   3:     .17115 elapsed seconds
Timing for main: time 2016-02-05_12:03:46 on domain   3:     .16275 elapsed seconds
Timing for main: time 2016-02-05_12:04:00 on domain   3:     .16333 elapsed seconds
Timing for main: time 2016-02-05_12:03:40 on domain   4:     .20196 elapsed seconds
Timing for main: time 2016-02-05_12:04:00 on domain   4:     .19586 elapsed seconds
Timing for main: time 2016-02-05_12:04:00 on domain   2:    1.59447 elapsed seconds
Timing for main: time 2016-02-05_12:04:00 on domain   1:    5.14111 elapsed seconds
Timing for main: time 2016-02-05_12:04:13 on domain   3:     .17154 elapsed seconds
Timing for main: time 2016-02-05_12:04:26 on domain   3:     .16255 elapsed seconds
Timing for main: time 2016-02-05_12:04:40 on domain   3:     .16818 elapsed seconds
Timing for main: time 2016-02-05_12:04:20 on domain   4:     .20223 elapsed seconds
Timing for main: time 2016-02-05_12:04:40 on domain   4:     .19693 elapsed seconds
Timing for main: time 2016-02-05_12:04:40 on domain   2:    1.61576 elapsed seconds
Timing for main: time 2016-02-05_12:04:53 on domain   3:     .17089 elapsed seconds
Timing for main: time 2016-02-05_12:05:06 on domain   3:     .17005 elapsed seconds
Timing for main: time 2016-02-05_12:05:20 on domain   3:     .16235 elapsed seconds
Timing for main: time 2016-02-05_12:05:00 on domain   4:     .20992 elapsed seconds
Timing for main: time 2016-02-05_12:05:20 on domain   4:     .19589 elapsed seconds
Timing for main: time 2016-02-05_12:05:20 on domain   2:    1.61813 elapsed seconds
Timing for main: time 2016-02-05_12:05:33 on domain   3:     .17117 elapsed seconds
Timing for main: time 2016-02-05_12:05:46 on domain   3:     .16247 elapsed seconds
Timing for main: time 2016-02-05_12:06:00 on domain   3:     .16380 elapsed seconds
Timing for main: time 2016-02-05_12:05:40 on domain   4:     .20220 elapsed seconds
Timing for main: time 2016-02-05_12:06:00 on domain   4:     .19607 elapsed seconds
Timing for main: time 2016-02-05_12:06:00 on domain   2:    1.59623 elapsed seconds
Timing for main: time 2016-02-05_12:06:00 on domain   1:    5.16575 elapsed seconds
Timing for main: time 2016-02-05_12:06:13 on domain   3:     .17089 elapsed seconds
Timing for main: time 2016-02-05_12:06:26 on domain   3:     .16263 elapsed seconds
Timing for main: time 2016-02-05_12:06:40 on domain   3:     .21831 elapsed seconds
Timing for main: time 2016-02-05_12:06:20 on domain   4:     .20258 elapsed seconds
Timing for main: time 2016-02-05_12:06:40 on domain   4:     .19610 elapsed seconds
Timing for main: time 2016-02-05_12:06:40 on domain   2:    1.70403 elapsed seconds
Timing for main: time 2016-02-05_12:06:53 on domain   3:     .17198 elapsed seconds
Timing for main: time 2016-02-05_12:07:06 on domain   3:     .16298 elapsed seconds
Timing for main: time 2016-02-05_12:07:20 on domain   3:     .16577 elapsed seconds
Timing for main: time 2016-02-05_12:07:00 on domain   4:     .20207 elapsed seconds
Timing for main: time 2016-02-05_12:07:20 on domain   4:     .19563 elapsed seconds
Timing for main: time 2016-02-05_12:07:20 on domain   2:    1.59890 elapsed seconds
Timing for main: time 2016-02-05_12:07:33 on domain   3:     .17135 elapsed seconds
Timing for main: time 2016-02-05_12:07:46 on domain   3:     .16265 elapsed seconds
Timing for main: time 2016-02-05_12:08:00 on domain   3:     .16298 elapsed seconds
Timing for main: time 2016-02-05_12:07:40 on domain   4:     .20233 elapsed seconds
Timing for main: time 2016-02-05_12:08:00 on domain   4:     .19582 elapsed seconds
Timing for main: time 2016-02-05_12:08:00 on domain   2:    1.59579 elapsed seconds
Timing for main: time 2016-02-05_12:08:00 on domain   1:    5.22687 elapsed seconds
Timing for main: time 2016-02-05_12:08:13 on domain   3:     .17658 elapsed seconds
Timing for main: time 2016-02-05_12:08:26 on domain   3:     .16218 elapsed seconds
Timing for main: time 2016-02-05_12:08:40 on domain   3:     .16296 elapsed seconds
Timing for main: time 2016-02-05_12:08:20 on domain   4:     .20279 elapsed seconds
Timing for main: time 2016-02-05_12:08:40 on domain   4:     .19640 elapsed seconds
Timing for main: time 2016-02-05_12:08:40 on domain   2:    1.61654 elapsed seconds
Timing for main: time 2016-02-05_12:08:53 on domain   3:     .17265 elapsed seconds
Timing for main: time 2016-02-05_12:09:06 on domain   3:     .16372 elapsed seconds
Timing for main: time 2016-02-05_12:09:20 on domain   3:     .16324 elapsed seconds
Timing for main: time 2016-02-05_12:09:00 on domain   4:     .20178 elapsed seconds
Timing for main: time 2016-02-05_12:09:20 on domain   4:     .19623 elapsed seconds
Timing for main: time 2016-02-05_12:09:20 on domain   2:    1.59895 elapsed seconds
Timing for main: time 2016-02-05_12:09:33 on domain   3:     .17154 elapsed seconds
Timing for main: time 2016-02-05_12:09:46 on domain   3:     .16204 elapsed seconds
Timing for main: time 2016-02-05_12:10:00 on domain   3:     .16282 elapsed seconds
Timing for main: time 2016-02-05_12:09:40 on domain   4:     .20687 elapsed seconds
Timing for main: time 2016-02-05_12:10:00 on domain   4:     .22451 elapsed seconds
Timing for main: time 2016-02-05_12:10:00 on domain   2:    1.62822 elapsed seconds
Timing for main: time 2016-02-05_12:10:00 on domain   1:    5.17151 elapsed seconds
Timing for main: time 2016-02-05_12:10:13 on domain   3:     .17883 elapsed seconds
Timing for main: time 2016-02-05_12:10:26 on domain   3:     .16262 elapsed seconds
Timing for main: time 2016-02-05_12:10:40 on domain   3:     .16347 elapsed seconds
Timing for main: time 2016-02-05_12:10:20 on domain   4:     .20250 elapsed seconds
Timing for main: time 2016-02-05_12:10:40 on domain   4:     .19578 elapsed seconds
Timing for main: time 2016-02-05_12:10:40 on domain   2:    1.62625 elapsed seconds
Timing for main: time 2016-02-05_12:10:53 on domain   3:     .17425 elapsed seconds
Timing for main: time 2016-02-05_12:11:06 on domain   3:     .16802 elapsed seconds
Timing for main: time 2016-02-05_12:11:20 on domain   3:     .16265 elapsed seconds
Timing for main: time 2016-02-05_12:11:00 on domain   4:     .20262 elapsed seconds
Timing for main: time 2016-02-05_12:11:20 on domain   4:     .19587 elapsed seconds
Timing for main: time 2016-02-05_12:11:20 on domain   2:    1.60423 elapsed seconds
Timing for main: time 2016-02-05_12:11:33 on domain   3:     .17109 elapsed seconds
Timing for main: time 2016-02-05_12:11:46 on domain   3:     .16252 elapsed seconds
Timing for main: time 2016-02-05_12:12:00 on domain   3:     .16288 elapsed seconds
Timing for main: time 2016-02-05_12:11:40 on domain   4:     .20248 elapsed seconds
Timing for main: time 2016-02-05_12:12:00 on domain   4:     .19601 elapsed seconds
Timing for main: time 2016-02-05_12:12:00 on domain   2:    1.59465 elapsed seconds
Timing for main: time 2016-02-05_12:12:00 on domain   1:    5.16151 elapsed seconds
Timing for main: time 2016-02-05_12:12:13 on domain   3:     .17129 elapsed seconds
Timing for main: time 2016-02-05_12:12:26 on domain   3:     .16599 elapsed seconds
Timing for main: time 2016-02-05_12:12:40 on domain   3:     .16362 elapsed seconds
Timing for main: time 2016-02-05_12:12:20 on domain   4:     .20268 elapsed seconds
Timing for main: time 2016-02-05_12:12:40 on domain   4:     .19635 elapsed seconds
Timing for main: time 2016-02-05_12:12:40 on domain   2:    1.61419 elapsed seconds
Timing for main: time 2016-02-05_12:12:53 on domain   3:     .17161 elapsed seconds
Timing for main: time 2016-02-05_12:13:06 on domain   3:     .16237 elapsed seconds
Timing for main: time 2016-02-05_12:13:20 on domain   3:     .16476 elapsed seconds
Timing for main: time 2016-02-05_12:13:00 on domain   4:     .20866 elapsed seconds
Timing for main: time 2016-02-05_12:13:20 on domain   4:     .20082 elapsed seconds
Timing for main: time 2016-02-05_12:13:20 on domain   2:    1.60812 elapsed seconds
Timing for main: time 2016-02-05_12:13:33 on domain   3:     .17153 elapsed seconds
Timing for main: time 2016-02-05_12:13:46 on domain   3:     .16288 elapsed seconds
Timing for main: time 2016-02-05_12:14:00 on domain   3:     .16264 elapsed seconds
Timing for main: time 2016-02-05_12:13:40 on domain   4:     .20875 elapsed seconds
Timing for main: time 2016-02-05_12:14:00 on domain   4:     .19658 elapsed seconds
Timing for main: time 2016-02-05_12:14:00 on domain   2:    1.60474 elapsed seconds
Timing for main: time 2016-02-05_12:14:00 on domain   1:    5.15588 elapsed seconds
Timing for main: time 2016-02-05_12:14:13 on domain   3:     .17151 elapsed seconds
Timing for main: time 2016-02-05_12:14:26 on domain   3:     .16326 elapsed seconds
Timing for main: time 2016-02-05_12:14:40 on domain   3:     .16234 elapsed seconds
Timing for main: time 2016-02-05_12:14:20 on domain   4:     .20284 elapsed seconds
Timing for main: time 2016-02-05_12:14:40 on domain   4:     .19612 elapsed seconds
Timing for main: time 2016-02-05_12:14:40 on domain   2:    1.61343 elapsed seconds
Timing for main: time 2016-02-05_12:14:53 on domain   3:     .17107 elapsed seconds
Timing for main: time 2016-02-05_12:15:06 on domain   3:     .16310 elapsed seconds
Timing for main: time 2016-02-05_12:15:20 on domain   3:     .16997 elapsed seconds
Timing for main: time 2016-02-05_12:15:00 on domain   4:     .21175 elapsed seconds
Timing for main: time 2016-02-05_12:15:20 on domain   4:     .19638 elapsed seconds
Timing for main: time 2016-02-05_12:15:20 on domain   2:    1.61303 elapsed seconds
Timing for main: time 2016-02-05_12:15:33 on domain   3:     .17118 elapsed seconds
Timing for main: time 2016-02-05_12:15:46 on domain   3:     .16309 elapsed seconds
Timing for main: time 2016-02-05_12:16:00 on domain   3:     .16288 elapsed seconds
Timing for main: time 2016-02-05_12:15:40 on domain   4:     .20321 elapsed seconds
Timing for main: time 2016-02-05_12:16:00 on domain   4:     .19911 elapsed seconds
Timing for main: time 2016-02-05_12:16:00 on domain   2:    1.60807 elapsed seconds
Timing for main: time 2016-02-05_12:16:00 on domain   1:    5.16176 elapsed seconds
Timing for main: time 2016-02-05_12:16:13 on domain   3:     .17288 elapsed seconds
Timing for main: time 2016-02-05_12:16:26 on domain   3:     .16269 elapsed seconds
Timing for main: time 2016-02-05_12:16:40 on domain   3:     .16272 elapsed seconds
Timing for main: time 2016-02-05_12:16:20 on domain   4:     .20308 elapsed seconds
Timing for main: time 2016-02-05_12:16:40 on domain   4:     .19629 elapsed seconds
Timing for main: time 2016-02-05_12:16:40 on domain   2:    1.61269 elapsed seconds
Timing for main: time 2016-02-05_12:16:53 on domain   3:     .17081 elapsed seconds
Timing for main: time 2016-02-05_12:17:06 on domain   3:     .16343 elapsed seconds
Timing for main: time 2016-02-05_12:17:20 on domain   3:     .16637 elapsed seconds
Timing for main: time 2016-02-05_12:17:00 on domain   4:     .20332 elapsed seconds
Timing for main: time 2016-02-05_12:17:20 on domain   4:     .19559 elapsed seconds
Timing for main: time 2016-02-05_12:17:20 on domain   2:    1.59629 elapsed seconds
Timing for main: time 2016-02-05_12:17:33 on domain   3:     .17300 elapsed seconds
Timing for main: time 2016-02-05_12:17:46 on domain   3:     .16073 elapsed seconds
Timing for main: time 2016-02-05_12:18:00 on domain   3:     .16304 elapsed seconds
Timing for main: time 2016-02-05_12:17:40 on domain   4:     .20325 elapsed seconds
Timing for main: time 2016-02-05_12:18:00 on domain   4:     .19627 elapsed seconds
Timing for main: time 2016-02-05_12:18:00 on domain   2:    1.59732 elapsed seconds
Timing for main: time 2016-02-05_12:18:00 on domain   1:    5.14109 elapsed seconds
Timing for main: time 2016-02-05_12:18:13 on domain   3:     .17102 elapsed seconds
Timing for main: time 2016-02-05_12:18:26 on domain   3:     .16341 elapsed seconds
Timing for main: time 2016-02-05_12:18:40 on domain   3:     .16704 elapsed seconds
Timing for main: time 2016-02-05_12:18:20 on domain   4:     .20281 elapsed seconds
Timing for main: time 2016-02-05_12:18:40 on domain   4:     .19622 elapsed seconds
Timing for main: time 2016-02-05_12:18:40 on domain   2:    1.61269 elapsed seconds
Timing for main: time 2016-02-05_12:18:53 on domain   3:     .17095 elapsed seconds
Timing for main: time 2016-02-05_12:19:06 on domain   3:     .16272 elapsed seconds
Timing for main: time 2016-02-05_12:19:20 on domain   3:     .16312 elapsed seconds
Timing for main: time 2016-02-05_12:19:00 on domain   4:     .20305 elapsed seconds
Timing for main: time 2016-02-05_12:19:20 on domain   4:     .19575 elapsed seconds
Timing for main: time 2016-02-05_12:19:20 on domain   2:    1.59745 elapsed seconds
Timing for main: time 2016-02-05_12:19:33 on domain   3:     .17105 elapsed seconds
Timing for main: time 2016-02-05_12:19:46 on domain   3:     .16311 elapsed seconds
Timing for main: time 2016-02-05_12:20:00 on domain   3:     .16318 elapsed seconds
Timing for main: time 2016-02-05_12:19:40 on domain   4:     .20332 elapsed seconds
Timing for main: time 2016-02-05_12:20:00 on domain   4:     .20497 elapsed seconds
Timing for main: time 2016-02-05_12:20:00 on domain   2:    1.60581 elapsed seconds
Timing for main: time 2016-02-05_12:20:00 on domain   1:    5.14297 elapsed seconds
Timing for main: time 2016-02-05_12:20:13 on domain   3:     .17160 elapsed seconds
Timing for main: time 2016-02-05_12:20:26 on domain   3:     .17054 elapsed seconds
Timing for main: time 2016-02-05_12:20:40 on domain   3:     .16255 elapsed seconds
Timing for main: time 2016-02-05_12:20:20 on domain   4:     .20326 elapsed seconds
Timing for main: time 2016-02-05_12:20:40 on domain   4:     .19767 elapsed seconds
Timing for main: time 2016-02-05_12:20:40 on domain   2:    1.62229 elapsed seconds
Timing for main: time 2016-02-05_12:20:53 on domain   3:     .17129 elapsed seconds
Timing for main: time 2016-02-05_12:21:06 on domain   3:     .16270 elapsed seconds
Timing for main: time 2016-02-05_12:21:20 on domain   3:     .16319 elapsed seconds
Timing for main: time 2016-02-05_12:21:00 on domain   4:     .20399 elapsed seconds
Timing for main: time 2016-02-05_12:21:20 on domain   4:     .19587 elapsed seconds
Timing for main: time 2016-02-05_12:21:20 on domain   2:    1.60611 elapsed seconds
Timing for main: time 2016-02-05_12:21:33 on domain   3:     .18147 elapsed seconds
Timing for main: time 2016-02-05_12:21:46 on domain   3:     .17086 elapsed seconds
Timing for main: time 2016-02-05_12:22:00 on domain   3:     .16291 elapsed seconds
Timing for main: time 2016-02-05_12:21:40 on domain   4:     .20338 elapsed seconds
Timing for main: time 2016-02-05_12:22:00 on domain   4:     .19610 elapsed seconds
Timing for main: time 2016-02-05_12:22:00 on domain   2:    1.61611 elapsed seconds
Timing for main: time 2016-02-05_12:22:00 on domain   1:    5.17402 elapsed seconds
Timing for main: time 2016-02-05_12:22:13 on domain   3:     .17135 elapsed seconds
Timing for main: time 2016-02-05_12:22:26 on domain   3:     .16249 elapsed seconds
Timing for main: time 2016-02-05_12:22:40 on domain   3:     .16300 elapsed seconds
Timing for main: time 2016-02-05_12:22:20 on domain   4:     .20317 elapsed seconds
Timing for main: time 2016-02-05_12:22:40 on domain   4:     .19875 elapsed seconds
Timing for main: time 2016-02-05_12:22:40 on domain   2:    1.61492 elapsed seconds
Timing for main: time 2016-02-05_12:22:53 on domain   3:     .17141 elapsed seconds
Timing for main: time 2016-02-05_12:23:06 on domain   3:     .16234 elapsed seconds
Timing for main: time 2016-02-05_12:23:20 on domain   3:     .16484 elapsed seconds
Timing for main: time 2016-02-05_12:23:00 on domain   4:     .20338 elapsed seconds
Timing for main: time 2016-02-05_12:23:20 on domain   4:     .19578 elapsed seconds
Timing for main: time 2016-02-05_12:23:20 on domain   2:    1.59741 elapsed seconds
Timing for main: time 2016-02-05_12:23:33 on domain   3:     .17085 elapsed seconds
Timing for main: time 2016-02-05_12:23:46 on domain   3:     .16304 elapsed seconds
Timing for main: time 2016-02-05_12:24:00 on domain   3:     .16253 elapsed seconds
Timing for main: time 2016-02-05_12:23:40 on domain   4:     .20309 elapsed seconds
Timing for main: time 2016-02-05_12:24:00 on domain   4:     .19602 elapsed seconds
Timing for main: time 2016-02-05_12:24:00 on domain   2:    1.59472 elapsed seconds
Timing for main: time 2016-02-05_12:24:00 on domain   1:    5.14130 elapsed seconds
Timing for main: time 2016-02-05_12:24:13 on domain   3:     .17125 elapsed seconds
Timing for main: time 2016-02-05_12:24:26 on domain   3:     .16302 elapsed seconds
Timing for main: time 2016-02-05_12:24:40 on domain   3:     .16488 elapsed seconds
Timing for main: time 2016-02-05_12:24:20 on domain   4:     .20278 elapsed seconds
Timing for main: time 2016-02-05_12:24:40 on domain   4:     .19766 elapsed seconds
Timing for main: time 2016-02-05_12:24:40 on domain   2:    1.65807 elapsed seconds
Timing for main: time 2016-02-05_12:24:53 on domain   3:     .17447 elapsed seconds
Timing for main: time 2016-02-05_12:25:06 on domain   3:     .16232 elapsed seconds
Timing for main: time 2016-02-05_12:25:20 on domain   3:     .16544 elapsed seconds
Timing for main: time 2016-02-05_12:25:00 on domain   4:     .21184 elapsed seconds
Timing for main: time 2016-02-05_12:25:20 on domain   4:     .19577 elapsed seconds
Timing for main: time 2016-02-05_12:25:20 on domain   2:    1.60883 elapsed seconds
Timing for main: time 2016-02-05_12:25:33 on domain   3:     .17867 elapsed seconds
Timing for main: time 2016-02-05_12:25:46 on domain   3:     .16291 elapsed seconds
Timing for main: time 2016-02-05_12:26:00 on domain   3:     .16790 elapsed seconds
Timing for main: time 2016-02-05_12:25:40 on domain   4:     .20245 elapsed seconds
Timing for main: time 2016-02-05_12:26:00 on domain   4:     .19624 elapsed seconds
Timing for main: time 2016-02-05_12:26:00 on domain   2:    1.61038 elapsed seconds
Timing for main: time 2016-02-05_12:26:00 on domain   1:    5.20499 elapsed seconds
Timing for main: time 2016-02-05_12:26:13 on domain   3:     .17150 elapsed seconds
Timing for main: time 2016-02-05_12:26:26 on domain   3:     .16297 elapsed seconds
Timing for main: time 2016-02-05_12:26:40 on domain   3:     .16493 elapsed seconds
Timing for main: time 2016-02-05_12:26:20 on domain   4:     .22875 elapsed seconds
Timing for main: time 2016-02-05_12:26:40 on domain   4:     .25949 elapsed seconds
Timing for main: time 2016-02-05_12:26:40 on domain   2:    1.71168 elapsed seconds
Timing for main: time 2016-02-05_12:26:53 on domain   3:     .17106 elapsed seconds
Timing for main: time 2016-02-05_12:27:06 on domain   3:     .16291 elapsed seconds
Timing for main: time 2016-02-05_12:27:20 on domain   3:     .16305 elapsed seconds
Timing for main: time 2016-02-05_12:27:00 on domain   4:     .22579 elapsed seconds
Timing for main: time 2016-02-05_12:27:20 on domain   4:     .19547 elapsed seconds
Timing for main: time 2016-02-05_12:27:20 on domain   2:    1.61965 elapsed seconds
Timing for main: time 2016-02-05_12:27:33 on domain   3:     .17114 elapsed seconds
Timing for main: time 2016-02-05_12:27:46 on domain   3:     .17085 elapsed seconds
Timing for main: time 2016-02-05_12:28:00 on domain   3:     .16306 elapsed seconds
Timing for main: time 2016-02-05_12:27:40 on domain   4:     .20579 elapsed seconds
Timing for main: time 2016-02-05_12:28:00 on domain   4:     .19550 elapsed seconds
Timing for main: time 2016-02-05_12:28:00 on domain   2:    1.60673 elapsed seconds
Timing for main: time 2016-02-05_12:28:00 on domain   1:    5.26479 elapsed seconds
  photolysis_driver: called for domain  1
Timing for main: time 2016-02-05_12:28:13 on domain   3:     .17064 elapsed seconds
Timing for main: time 2016-02-05_12:28:26 on domain   3:     .16378 elapsed seconds
Timing for main: time 2016-02-05_12:28:40 on domain   3:     .16418 elapsed seconds
Timing for main: time 2016-02-05_12:28:20 on domain   4:     .20356 elapsed seconds
Timing for main: time 2016-02-05_12:28:40 on domain   4:     .19678 elapsed seconds
Timing for main: time 2016-02-05_12:28:40 on domain   2:    1.61320 elapsed seconds
Timing for main: time 2016-02-05_12:28:53 on domain   3:     .17141 elapsed seconds
Timing for main: time 2016-02-05_12:29:06 on domain   3:     .16260 elapsed seconds
Timing for main: time 2016-02-05_12:29:20 on domain   3:     .16278 elapsed seconds
Timing for main: time 2016-02-05_12:29:00 on domain   4:     .20337 elapsed seconds
Timing for main: time 2016-02-05_12:29:20 on domain   4:     .19588 elapsed seconds
Timing for main: time 2016-02-05_12:29:20 on domain   2:    1.59490 elapsed seconds
  photolysis_driver: called for domain  2
Timing for main: time 2016-02-05_12:29:33 on domain   3:     .17139 elapsed seconds
Timing for main: time 2016-02-05_12:29:46 on domain   3:     .16275 elapsed seconds
  photolysis_driver: called for domain  3
Timing for main: time 2016-02-05_12:30:00 on domain   3:     .94272 elapsed seconds
Timing for main: time 2016-02-05_12:29:40 on domain   4:     .20307 elapsed seconds
  photolysis_driver: called for domain  4
Timing for main: time 2016-02-05_12:30:00 on domain   4:    1.07150 elapsed seconds
Timing for main: time 2016-02-05_12:30:00 on domain   2:    4.20116 elapsed seconds
Timing for main: time 2016-02-05_12:30:00 on domain   1:    8.32899 elapsed seconds
Timing for main: time 2016-02-05_12:30:13 on domain   3:     .32777 elapsed seconds
Timing for main: time 2016-02-05_12:30:26 on domain   3:     .16794 elapsed seconds
Timing for main: time 2016-02-05_12:30:40 on domain   3:     .16918 elapsed seconds
Timing for main: time 2016-02-05_12:30:20 on domain   4:     .37571 elapsed seconds
Timing for main: time 2016-02-05_12:30:40 on domain   4:     .19545 elapsed seconds
Timing for main: time 2016-02-05_12:30:40 on domain   2:    2.13996 elapsed seconds
Timing for main: time 2016-02-05_12:30:53 on domain   3:     .17066 elapsed seconds
Timing for main: time 2016-02-05_12:31:06 on domain   3:     .16159 elapsed seconds
Timing for main: time 2016-02-05_12:31:20 on domain   3:     .16279 elapsed seconds
Timing for main: time 2016-02-05_12:31:00 on domain   4:     .20329 elapsed seconds
Timing for main: time 2016-02-05_12:31:20 on domain   4:     .19776 elapsed seconds
Timing for main: time 2016-02-05_12:31:20 on domain   2:    1.59571 elapsed seconds
Timing for main: time 2016-02-05_12:31:33 on domain   3:     .17035 elapsed seconds
Timing for main: time 2016-02-05_12:31:46 on domain   3:     .16177 elapsed seconds
Timing for main: time 2016-02-05_12:32:00 on domain   3:     .16985 elapsed seconds
Timing for main: time 2016-02-05_12:31:40 on domain   4:     .20167 elapsed seconds
Timing for main: time 2016-02-05_12:32:00 on domain   4:     .19512 elapsed seconds
Timing for main: time 2016-02-05_12:32:00 on domain   2:    1.61261 elapsed seconds
Timing for main: time 2016-02-05_12:32:00 on domain   1:    5.81136 elapsed seconds
Timing for main: time 2016-02-05_12:32:13 on domain   3:     .17118 elapsed seconds
Timing for main: time 2016-02-05_12:32:26 on domain   3:     .16236 elapsed seconds
Timing for main: time 2016-02-05_12:32:40 on domain   3:     .16188 elapsed seconds
Timing for main: time 2016-02-05_12:32:20 on domain   4:     .20721 elapsed seconds
Timing for main: time 2016-02-05_12:32:40 on domain   4:     .19563 elapsed seconds
Timing for main: time 2016-02-05_12:32:40 on domain   2:    1.61221 elapsed seconds
Timing for main: time 2016-02-05_12:32:53 on domain   3:     .17050 elapsed seconds
Timing for main: time 2016-02-05_12:33:06 on domain   3:     .16152 elapsed seconds
Timing for main: time 2016-02-05_12:33:20 on domain   3:     .16174 elapsed seconds
Timing for main: time 2016-02-05_12:33:00 on domain   4:     .20171 elapsed seconds
Timing for main: time 2016-02-05_12:33:20 on domain   4:     .19465 elapsed seconds
Timing for main: time 2016-02-05_12:33:20 on domain   2:    1.59497 elapsed seconds
Timing for main: time 2016-02-05_12:33:33 on domain   3:     .17056 elapsed seconds
Timing for main: time 2016-02-05_12:33:46 on domain   3:     .16178 elapsed seconds
Timing for main: time 2016-02-05_12:34:00 on domain   3:     .16186 elapsed seconds
Timing for main: time 2016-02-05_12:33:40 on domain   4:     .20180 elapsed seconds
Timing for main: time 2016-02-05_12:34:00 on domain   4:     .19480 elapsed seconds
Timing for main: time 2016-02-05_12:34:00 on domain   2:    1.59078 elapsed seconds
Timing for main: time 2016-02-05_12:34:00 on domain   1:    5.12473 elapsed seconds
Timing for main: time 2016-02-05_12:34:13 on domain   3:     .17260 elapsed seconds
Timing for main: time 2016-02-05_12:34:26 on domain   3:     .16196 elapsed seconds
Timing for main: time 2016-02-05_12:34:40 on domain   3:     .16281 elapsed seconds
Timing for main: time 2016-02-05_12:34:20 on domain   4:     .20183 elapsed seconds
Timing for main: time 2016-02-05_12:34:40 on domain   4:     .19641 elapsed seconds
Timing for main: time 2016-02-05_12:34:40 on domain   2:    1.61130 elapsed seconds
Timing for main: time 2016-02-05_12:34:53 on domain   3:     .17040 elapsed seconds
Timing for main: time 2016-02-05_12:35:06 on domain   3:     .16551 elapsed seconds
Timing for main: time 2016-02-05_12:35:20 on domain   3:     .16355 elapsed seconds
Timing for main: time 2016-02-05_12:35:00 on domain   4:     .21061 elapsed seconds
Timing for main: time 2016-02-05_12:35:20 on domain   4:     .19516 elapsed seconds
Timing for main: time 2016-02-05_12:35:20 on domain   2:    1.60484 elapsed seconds
Timing for main: time 2016-02-05_12:35:33 on domain   3:     .17487 elapsed seconds
Timing for main: time 2016-02-05_12:35:46 on domain   3:     .17194 elapsed seconds
Timing for main: time 2016-02-05_12:36:00 on domain   3:     .16199 elapsed seconds
Timing for main: time 2016-02-05_12:35:40 on domain   4:     .20317 elapsed seconds
Timing for main: time 2016-02-05_12:36:00 on domain   4:     .19495 elapsed seconds
Timing for main: time 2016-02-05_12:36:00 on domain   2:    1.71102 elapsed seconds
Timing for main: time 2016-02-05_12:36:00 on domain   1:    5.26149 elapsed seconds
Timing for main: time 2016-02-05_12:36:13 on domain   3:     .17083 elapsed seconds
Timing for main: time 2016-02-05_12:36:26 on domain   3:     .16181 elapsed seconds
Timing for main: time 2016-02-05_12:36:40 on domain   3:     .16177 elapsed seconds
Timing for main: time 2016-02-05_12:36:20 on domain   4:     .20215 elapsed seconds
Timing for main: time 2016-02-05_12:36:40 on domain   4:     .19481 elapsed seconds
Timing for main: time 2016-02-05_12:36:40 on domain   2:    1.60588 elapsed seconds
Timing for main: time 2016-02-05_12:36:53 on domain   3:     .17008 elapsed seconds
Timing for main: time 2016-02-05_12:37:06 on domain   3:     .16174 elapsed seconds
Timing for main: time 2016-02-05_12:37:20 on domain   3:     .16182 elapsed seconds
Timing for main: time 2016-02-05_12:37:00 on domain   4:     .20209 elapsed seconds
Timing for main: time 2016-02-05_12:37:20 on domain   4:     .19453 elapsed seconds
Timing for main: time 2016-02-05_12:37:20 on domain   2:    1.59854 elapsed seconds
Timing for main: time 2016-02-05_12:37:33 on domain   3:     .17045 elapsed seconds
Timing for main: time 2016-02-05_12:37:46 on domain   3:     .16317 elapsed seconds
Timing for main: time 2016-02-05_12:38:00 on domain   3:     .16205 elapsed seconds
Timing for main: time 2016-02-05_12:37:40 on domain   4:     .27912 elapsed seconds
Timing for main: time 2016-02-05_12:38:00 on domain   4:     .20648 elapsed seconds
Timing for main: time 2016-02-05_12:38:00 on domain   2:    1.68454 elapsed seconds
Timing for main: time 2016-02-05_12:38:00 on domain   1:    5.21604 elapsed seconds
Timing for main: time 2016-02-05_12:38:13 on domain   3:     .17061 elapsed seconds
Timing for main: time 2016-02-05_12:38:26 on domain   3:     .16201 elapsed seconds
Timing for main: time 2016-02-05_12:38:40 on domain   3:     .16171 elapsed seconds
Timing for main: time 2016-02-05_12:38:20 on domain   4:     .24521 elapsed seconds
Timing for main: time 2016-02-05_12:38:40 on domain   4:     .21558 elapsed seconds
Timing for main: time 2016-02-05_12:38:40 on domain   2:    1.66963 elapsed seconds
Timing for main: time 2016-02-05_12:38:53 on domain   3:     .17137 elapsed seconds
Timing for main: time 2016-02-05_12:39:06 on domain   3:     .16126 elapsed seconds
Timing for main: time 2016-02-05_12:39:20 on domain   3:     .16188 elapsed seconds
Timing for main: time 2016-02-05_12:39:00 on domain   4:     .20173 elapsed seconds
Timing for main: time 2016-02-05_12:39:20 on domain   4:     .19483 elapsed seconds
Timing for main: time 2016-02-05_12:39:20 on domain   2:    1.59084 elapsed seconds
Timing for main: time 2016-02-05_12:39:33 on domain   3:     .16996 elapsed seconds
Timing for main: time 2016-02-05_12:39:46 on domain   3:     .16211 elapsed seconds
Timing for main: time 2016-02-05_12:40:00 on domain   3:     .16168 elapsed seconds
Timing for main: time 2016-02-05_12:39:40 on domain   4:     .20186 elapsed seconds
Timing for main: time 2016-02-05_12:40:00 on domain   4:     .20313 elapsed seconds
Timing for main: time 2016-02-05_12:40:00 on domain   2:    1.59863 elapsed seconds
Timing for main: time 2016-02-05_12:40:00 on domain   1:    5.18590 elapsed seconds
Timing for main: time 2016-02-05_12:40:13 on domain   3:     .17030 elapsed seconds
Timing for main: time 2016-02-05_12:40:26 on domain   3:     .16440 elapsed seconds
Timing for main: time 2016-02-05_12:40:40 on domain   3:     .16351 elapsed seconds
Timing for main: time 2016-02-05_12:40:20 on domain   4:     .20227 elapsed seconds
Timing for main: time 2016-02-05_12:40:40 on domain   4:     .19455 elapsed seconds
Timing for main: time 2016-02-05_12:40:40 on domain   2:    1.61006 elapsed seconds
Timing for main: time 2016-02-05_12:40:53 on domain   3:     .17733 elapsed seconds
Timing for main: time 2016-02-05_12:41:06 on domain   3:     .16234 elapsed seconds
Timing for main: time 2016-02-05_12:41:20 on domain   3:     .16196 elapsed seconds
Timing for main: time 2016-02-05_12:41:00 on domain   4:     .20204 elapsed seconds
Timing for main: time 2016-02-05_12:41:20 on domain   4:     .19476 elapsed seconds
Timing for main: time 2016-02-05_12:41:20 on domain   2:    1.59805 elapsed seconds
Timing for main: time 2016-02-05_12:41:33 on domain   3:     .17050 elapsed seconds
Timing for main: time 2016-02-05_12:41:46 on domain   3:     .16280 elapsed seconds
Timing for main: time 2016-02-05_12:42:00 on domain   3:     .16225 elapsed seconds
Timing for main: time 2016-02-05_12:41:40 on domain   4:     .20164 elapsed seconds
Timing for main: time 2016-02-05_12:42:00 on domain   4:     .19794 elapsed seconds
Timing for main: time 2016-02-05_12:42:00 on domain   2:    1.59697 elapsed seconds
Timing for main: time 2016-02-05_12:42:00 on domain   1:    5.14144 elapsed seconds
Timing for main: time 2016-02-05_12:42:13 on domain   3:     .17137 elapsed seconds
Timing for main: time 2016-02-05_12:42:26 on domain   3:     .16188 elapsed seconds
Timing for main: time 2016-02-05_12:42:40 on domain   3:     .16196 elapsed seconds
Timing for main: time 2016-02-05_12:42:20 on domain   4:     .20162 elapsed seconds
Timing for main: time 2016-02-05_12:42:40 on domain   4:     .19423 elapsed seconds
Timing for main: time 2016-02-05_12:42:40 on domain   2:    1.61525 elapsed seconds
Timing for main: time 2016-02-05_12:42:53 on domain   3:     .17062 elapsed seconds
Timing for main: time 2016-02-05_12:43:06 on domain   3:     .16171 elapsed seconds
Timing for main: time 2016-02-05_12:43:20 on domain   3:     .16207 elapsed seconds
Timing for main: time 2016-02-05_12:43:00 on domain   4:     .20010 elapsed seconds
Timing for main: time 2016-02-05_12:43:20 on domain   4:     .19461 elapsed seconds
Timing for main: time 2016-02-05_12:43:20 on domain   2:    1.59084 elapsed seconds
Timing for main: time 2016-02-05_12:43:33 on domain   3:     .17018 elapsed seconds
Timing for main: time 2016-02-05_12:43:46 on domain   3:     .16240 elapsed seconds
Timing for main: time 2016-02-05_12:44:00 on domain   3:     .16161 elapsed seconds
Timing for main: time 2016-02-05_12:43:40 on domain   4:     .20195 elapsed seconds
Timing for main: time 2016-02-05_12:44:00 on domain   4:     .19558 elapsed seconds
Timing for main: time 2016-02-05_12:44:00 on domain   2:    1.59369 elapsed seconds
Timing for main: time 2016-02-05_12:44:00 on domain   1:    5.12900 elapsed seconds
Timing for main: time 2016-02-05_12:44:13 on domain   3:     .17010 elapsed seconds
Timing for main: time 2016-02-05_12:44:26 on domain   3:     .16817 elapsed seconds
Timing for main: time 2016-02-05_12:44:40 on domain   3:     .16158 elapsed seconds
Timing for main: time 2016-02-05_12:44:20 on domain   4:     .20202 elapsed seconds
Timing for main: time 2016-02-05_12:44:40 on domain   4:     .19499 elapsed seconds
Timing for main: time 2016-02-05_12:44:40 on domain   2:    1.69280 elapsed seconds
Timing for main: time 2016-02-05_12:44:53 on domain   3:     .17060 elapsed seconds
Timing for main: time 2016-02-05_12:45:06 on domain   3:     .16192 elapsed seconds
Timing for main: time 2016-02-05_12:45:20 on domain   3:     .16171 elapsed seconds
Timing for main: time 2016-02-05_12:45:00 on domain   4:     .21033 elapsed seconds
Timing for main: time 2016-02-05_12:45:20 on domain   4:     .19714 elapsed seconds
Timing for main: time 2016-02-05_12:45:20 on domain   2:    1.60217 elapsed seconds
Timing for main: time 2016-02-05_12:45:33 on domain   3:     .17013 elapsed seconds
Timing for main: time 2016-02-05_12:45:46 on domain   3:     .16219 elapsed seconds
Timing for main: time 2016-02-05_12:46:00 on domain   3:     .17192 elapsed seconds
Timing for main: time 2016-02-05_12:45:40 on domain   4:     .20261 elapsed seconds
Timing for main: time 2016-02-05_12:46:00 on domain   4:     .19452 elapsed seconds
Timing for main: time 2016-02-05_12:46:00 on domain   2:    1.60070 elapsed seconds
Timing for main: time 2016-02-05_12:46:00 on domain   1:    5.22214 elapsed seconds
Timing for main: time 2016-02-05_12:46:13 on domain   3:     .17041 elapsed seconds
Timing for main: time 2016-02-05_12:46:26 on domain   3:     .16523 elapsed seconds
Timing for main: time 2016-02-05_12:46:40 on domain   3:     .16152 elapsed seconds
Timing for main: time 2016-02-05_12:46:20 on domain   4:     .20192 elapsed seconds
Timing for main: time 2016-02-05_12:46:40 on domain   4:     .19777 elapsed seconds
Timing for main: time 2016-02-05_12:46:40 on domain   2:    1.61242 elapsed seconds
Timing for main: time 2016-02-05_12:46:53 on domain   3:     .16999 elapsed seconds
Timing for main: time 2016-02-05_12:47:06 on domain   3:     .16211 elapsed seconds
Timing for main: time 2016-02-05_12:47:20 on domain   3:     .16175 elapsed seconds
Timing for main: time 2016-02-05_12:47:00 on domain   4:     .20214 elapsed seconds
Timing for main: time 2016-02-05_12:47:20 on domain   4:     .19432 elapsed seconds
Timing for main: time 2016-02-05_12:47:20 on domain   2:    1.59050 elapsed seconds
Timing for main: time 2016-02-05_12:47:33 on domain   3:     .16932 elapsed seconds
Timing for main: time 2016-02-05_12:47:46 on domain   3:     .16251 elapsed seconds
Timing for main: time 2016-02-05_12:48:00 on domain   3:     .16191 elapsed seconds
Timing for main: time 2016-02-05_12:47:40 on domain   4:     .20263 elapsed seconds
Timing for main: time 2016-02-05_12:48:00 on domain   4:     .19412 elapsed seconds
Timing for main: time 2016-02-05_12:48:00 on domain   2:    1.60376 elapsed seconds
Timing for main: time 2016-02-05_12:48:00 on domain   1:    5.14133 elapsed seconds
Timing for main: time 2016-02-05_12:48:13 on domain   3:     .17002 elapsed seconds
Timing for main: time 2016-02-05_12:48:26 on domain   3:     .16151 elapsed seconds
Timing for main: time 2016-02-05_12:48:40 on domain   3:     .16218 elapsed seconds
Timing for main: time 2016-02-05_12:48:20 on domain   4:     .20210 elapsed seconds
Timing for main: time 2016-02-05_12:48:40 on domain   4:     .19470 elapsed seconds
Timing for main: time 2016-02-05_12:48:40 on domain   2:    1.60593 elapsed seconds
Timing for main: time 2016-02-05_12:48:53 on domain   3:     .16995 elapsed seconds
Timing for main: time 2016-02-05_12:49:06 on domain   3:     .16161 elapsed seconds
Timing for main: time 2016-02-05_12:49:20 on domain   3:     .16186 elapsed seconds
Timing for main: time 2016-02-05_12:49:00 on domain   4:     .20395 elapsed seconds
Timing for main: time 2016-02-05_12:49:20 on domain   4:     .19441 elapsed seconds
Timing for main: time 2016-02-05_12:49:20 on domain   2:    1.59177 elapsed seconds
Timing for main: time 2016-02-05_12:49:33 on domain   3:     .17071 elapsed seconds
Timing for main: time 2016-02-05_12:49:46 on domain   3:     .16273 elapsed seconds
Timing for main: time 2016-02-05_12:50:00 on domain   3:     .16168 elapsed seconds
Timing for main: time 2016-02-05_12:49:40 on domain   4:     .20168 elapsed seconds
Timing for main: time 2016-02-05_12:50:00 on domain   4:     .20324 elapsed seconds
Timing for main: time 2016-02-05_12:50:00 on domain   2:    1.60389 elapsed seconds
Timing for main: time 2016-02-05_12:50:00 on domain   1:    5.12905 elapsed seconds
Timing for main: time 2016-02-05_12:50:13 on domain   3:     .17054 elapsed seconds
Timing for main: time 2016-02-05_12:50:26 on domain   3:     .16162 elapsed seconds
Timing for main: time 2016-02-05_12:50:40 on domain   3:     .16165 elapsed seconds
Timing for main: time 2016-02-05_12:50:20 on domain   4:     .20392 elapsed seconds
Timing for main: time 2016-02-05_12:50:40 on domain   4:     .19451 elapsed seconds
Timing for main: time 2016-02-05_12:50:40 on domain   2:    1.60728 elapsed seconds
Timing for main: time 2016-02-05_12:50:53 on domain   3:     .17017 elapsed seconds
Timing for main: time 2016-02-05_12:51:06 on domain   3:     .16888 elapsed seconds
Timing for main: time 2016-02-05_12:51:20 on domain   3:     .16188 elapsed seconds
Timing for main: time 2016-02-05_12:51:00 on domain   4:     .20181 elapsed seconds
Timing for main: time 2016-02-05_12:51:20 on domain   4:     .19440 elapsed seconds
Timing for main: time 2016-02-05_12:51:20 on domain   2:    1.59712 elapsed seconds
Timing for main: time 2016-02-05_12:51:33 on domain   3:     .17036 elapsed seconds
Timing for main: time 2016-02-05_12:51:46 on domain   3:     .16165 elapsed seconds
Timing for main: time 2016-02-05_12:52:00 on domain   3:     .16502 elapsed seconds
Timing for main: time 2016-02-05_12:51:40 on domain   4:     .20196 elapsed seconds
Timing for main: time 2016-02-05_12:52:00 on domain   4:     .19449 elapsed seconds
Timing for main: time 2016-02-05_12:52:00 on domain   2:    1.59369 elapsed seconds
Timing for main: time 2016-02-05_12:52:00 on domain   1:    5.12546 elapsed seconds
Timing for main: time 2016-02-05_12:52:13 on domain   3:     .17036 elapsed seconds
Timing for main: time 2016-02-05_12:52:26 on domain   3:     .16158 elapsed seconds
Timing for main: time 2016-02-05_12:52:40 on domain   3:     .16151 elapsed seconds
Timing for main: time 2016-02-05_12:52:20 on domain   4:     .20160 elapsed seconds
Timing for main: time 2016-02-05_12:52:40 on domain   4:     .19476 elapsed seconds
Timing for main: time 2016-02-05_12:52:40 on domain   2:    1.60668 elapsed seconds
Timing for main: time 2016-02-05_12:52:53 on domain   3:     .17026 elapsed seconds
Timing for main: time 2016-02-05_12:53:06 on domain   3:     .16154 elapsed seconds
Timing for main: time 2016-02-05_12:53:20 on domain   3:     .16213 elapsed seconds
Timing for main: time 2016-02-05_12:53:00 on domain   4:     .20216 elapsed seconds
Timing for main: time 2016-02-05_12:53:20 on domain   4:     .21465 elapsed seconds
Timing for main: time 2016-02-05_12:53:20 on domain   2:    1.61956 elapsed seconds
Timing for main: time 2016-02-05_12:53:33 on domain   3:     .16978 elapsed seconds
Timing for main: time 2016-02-05_12:53:46 on domain   3:     .16514 elapsed seconds
Timing for main: time 2016-02-05_12:54:00 on domain   3:     .16289 elapsed seconds
Timing for main: time 2016-02-05_12:53:40 on domain   4:     .20189 elapsed seconds
Timing for main: time 2016-02-05_12:54:00 on domain   4:     .19443 elapsed seconds
Timing for main: time 2016-02-05_12:54:00 on domain   2:    1.65878 elapsed seconds
Timing for main: time 2016-02-05_12:54:00 on domain   1:    5.21918 elapsed seconds
Timing for main: time 2016-02-05_12:54:13 on domain   3:     .17016 elapsed seconds
Timing for main: time 2016-02-05_12:54:26 on domain   3:     .16318 elapsed seconds
Timing for main: time 2016-02-05_12:54:40 on domain   3:     .16201 elapsed seconds
Timing for main: time 2016-02-05_12:54:20 on domain   4:     .20192 elapsed seconds
Timing for main: time 2016-02-05_12:54:40 on domain   4:     .19442 elapsed seconds
Timing for main: time 2016-02-05_12:54:40 on domain   2:    1.61430 elapsed seconds
Timing for main: time 2016-02-05_12:54:53 on domain   3:     .17024 elapsed seconds
Timing for main: time 2016-02-05_12:55:06 on domain   3:     .16871 elapsed seconds
Timing for main: time 2016-02-05_12:55:20 on domain   3:     .16660 elapsed seconds
Timing for main: time 2016-02-05_12:55:00 on domain   4:     .21083 elapsed seconds
Timing for main: time 2016-02-05_12:55:20 on domain   4:     .19421 elapsed seconds
Timing for main: time 2016-02-05_12:55:20 on domain   2:    1.61050 elapsed seconds
Timing for main: time 2016-02-05_12:55:33 on domain   3:     .17063 elapsed seconds
Timing for main: time 2016-02-05_12:55:46 on domain   3:     .16153 elapsed seconds
Timing for main: time 2016-02-05_12:56:00 on domain   3:     .16251 elapsed seconds
Timing for main: time 2016-02-05_12:55:40 on domain   4:     .20437 elapsed seconds
Timing for main: time 2016-02-05_12:56:00 on domain   4:     .19489 elapsed seconds
Timing for main: time 2016-02-05_12:56:00 on domain   2:    1.59341 elapsed seconds
Timing for main: time 2016-02-05_12:56:00 on domain   1:    5.14590 elapsed seconds
Timing for main: time 2016-02-05_12:56:13 on domain   3:     .17706 elapsed seconds
Timing for main: time 2016-02-05_12:56:26 on domain   3:     .16299 elapsed seconds
Timing for main: time 2016-02-05_12:56:40 on domain   3:     .16174 elapsed seconds
Timing for main: time 2016-02-05_12:56:20 on domain   4:     .20167 elapsed seconds
Timing for main: time 2016-02-05_12:56:40 on domain   4:     .19463 elapsed seconds
Timing for main: time 2016-02-05_12:56:40 on domain   2:    1.61385 elapsed seconds
Timing for main: time 2016-02-05_12:56:53 on domain   3:     .16996 elapsed seconds
Timing for main: time 2016-02-05_12:57:06 on domain   3:     .16307 elapsed seconds
Timing for main: time 2016-02-05_12:57:20 on domain   3:     .16211 elapsed seconds
Timing for main: time 2016-02-05_12:57:00 on domain   4:     .20166 elapsed seconds
Timing for main: time 2016-02-05_12:57:20 on domain   4:     .19418 elapsed seconds
Timing for main: time 2016-02-05_12:57:20 on domain   2:    1.59157 elapsed seconds
Timing for main: time 2016-02-05_12:57:33 on domain   3:     .17026 elapsed seconds
Timing for main: time 2016-02-05_12:57:46 on domain   3:     .16195 elapsed seconds
Timing for main: time 2016-02-05_12:58:00 on domain   3:     .16216 elapsed seconds
Timing for main: time 2016-02-05_12:57:40 on domain   4:     .20200 elapsed seconds
Timing for main: time 2016-02-05_12:58:00 on domain   4:     .19508 elapsed seconds
Timing for main: time 2016-02-05_12:58:00 on domain   2:    1.59192 elapsed seconds
Timing for main: time 2016-02-05_12:58:00 on domain   1:    5.12864 elapsed seconds
  photolysis_driver: called for domain  1
Timing for main: time 2016-02-05_12:58:13 on domain   3:     .17036 elapsed seconds
Timing for main: time 2016-02-05_12:58:26 on domain   3:     .16172 elapsed seconds
Timing for main: time 2016-02-05_12:58:40 on domain   3:     .16200 elapsed seconds
Timing for main: time 2016-02-05_12:58:20 on domain   4:     .20720 elapsed seconds
Timing for main: time 2016-02-05_12:58:40 on domain   4:     .19474 elapsed seconds
Timing for main: time 2016-02-05_12:58:40 on domain   2:    1.62199 elapsed seconds
Timing for main: time 2016-02-05_12:58:53 on domain   3:     .17041 elapsed seconds
Timing for main: time 2016-02-05_12:59:06 on domain   3:     .16167 elapsed seconds
Timing for main: time 2016-02-05_12:59:20 on domain   3:     .16350 elapsed seconds
Timing for main: time 2016-02-05_12:59:00 on domain   4:     .20290 elapsed seconds
Timing for main: time 2016-02-05_12:59:20 on domain   4:     .19455 elapsed seconds
Timing for main: time 2016-02-05_12:59:20 on domain   2:    1.59332 elapsed seconds
  photolysis_driver: called for domain  2
Timing for main: time 2016-02-05_12:59:33 on domain   3:     .17037 elapsed seconds
Timing for main: time 2016-02-05_12:59:46 on domain   3:     .16335 elapsed seconds
  photolysis_driver: called for domain  3
Timing for main: time 2016-02-05_13:00:00 on domain   3:     .94034 elapsed seconds
Timing for main: time 2016-02-05_12:59:40 on domain   4:     .20199 elapsed seconds
  photolysis_driver: called for domain  4
Timing for main: time 2016-02-05_13:00:00 on domain   4:    1.07066 elapsed seconds
Timing for main: time 2016-02-05_13:00:00 on domain   2:    4.19637 elapsed seconds
Timing for main: time 2016-02-05_13:00:00 on domain   1:    8.32685 elapsed seconds
Timing for Writing wrfout_d01_2016-02-05_13:00:00 for domain        1:    1.48671 elapsed seconds
  HOURLY EMISSIONS UPDATE TIME     3600.0        .0
 mediation_integrate: med_read_wrf_chem_emissions: Read emissions for time 2016-02-05_13:00:00
 **WARNING** Time in input file not being checked **WARNING**
Timing for Writing wrfout_d02_2016-02-05_13:00:00 for domain        2:    2.11610 elapsed seconds
Timing for Writing wrfout_d03_2016-02-05_13:00:00 for domain        3:    2.01492 elapsed seconds
Timing for main: time 2016-02-05_13:00:13 on domain   3:    2.39766 elapsed seconds
Timing for main: time 2016-02-05_13:00:26 on domain   3:     .19039 elapsed seconds
Timing for main: time 2016-02-05_13:00:40 on domain   3:     .18901 elapsed seconds
Timing for Writing wrfout_d04_2016-02-05_13:00:00 for domain        4:    2.02844 elapsed seconds
Timing for main: time 2016-02-05_13:00:20 on domain   4:    2.47095 elapsed seconds
Timing for main: time 2016-02-05_13:00:40 on domain   4:     .23496 elapsed seconds
Timing for main: time 2016-02-05_13:00:40 on domain   2:    8.54178 elapsed seconds
Timing for main: time 2016-02-05_13:00:53 on domain   3:     .17137 elapsed seconds
Timing for main: time 2016-02-05_13:01:06 on domain   3:     .16152 elapsed seconds
Timing for main: time 2016-02-05_13:01:20 on domain   3:     .16965 elapsed seconds
Timing for main: time 2016-02-05_13:01:00 on domain   4:     .20210 elapsed seconds
Timing for main: time 2016-02-05_13:01:20 on domain   4:     .19462 elapsed seconds
Timing for main: time 2016-02-05_13:01:20 on domain   2:    1.62332 elapsed seconds
Timing for main: time 2016-02-05_13:01:33 on domain   3:     .17007 elapsed seconds
Timing for main: time 2016-02-05_13:01:46 on domain   3:     .16179 elapsed seconds
Timing for main: time 2016-02-05_13:02:00 on domain   3:     .16252 elapsed seconds
Timing for main: time 2016-02-05_13:01:40 on domain   4:     .20220 elapsed seconds
Timing for main: time 2016-02-05_13:02:00 on domain   4:     .19463 elapsed seconds
Timing for main: time 2016-02-05_13:02:00 on domain   2:    1.59422 elapsed seconds
Timing for main: time 2016-02-05_13:02:00 on domain   1:   14.17104 elapsed seconds
Timing for main: time 2016-02-05_13:02:13 on domain   3:     .17244 elapsed seconds
Timing for main: time 2016-02-05_13:02:26 on domain   3:     .16165 elapsed seconds
Timing for main: time 2016-02-05_13:02:40 on domain   3:     .16235 elapsed seconds
Timing for main: time 2016-02-05_13:02:20 on domain   4:     .20212 elapsed seconds
Timing for main: time 2016-02-05_13:02:40 on domain   4:     .19523 elapsed seconds
Timing for main: time 2016-02-05_13:02:40 on domain   2:    1.61019 elapsed seconds
Timing for main: time 2016-02-05_13:02:53 on domain   3:     .17409 elapsed seconds
Timing for main: time 2016-02-05_13:03:06 on domain   3:     .16267 elapsed seconds
Timing for main: time 2016-02-05_13:03:20 on domain   3:     .16207 elapsed seconds
Timing for main: time 2016-02-05_13:03:00 on domain   4:     .20218 elapsed seconds
Timing for main: time 2016-02-05_13:03:20 on domain   4:     .19515 elapsed seconds
Timing for main: time 2016-02-05_13:03:20 on domain   2:    1.59674 elapsed seconds
Timing for main: time 2016-02-05_13:03:33 on domain   3:     .17066 elapsed seconds
Timing for main: time 2016-02-05_13:03:46 on domain   3:     .16185 elapsed seconds
Timing for main: time 2016-02-05_13:04:00 on domain   3:     .16234 elapsed seconds
Timing for main: time 2016-02-05_13:03:40 on domain   4:     .20222 elapsed seconds
Timing for main: time 2016-02-05_13:04:00 on domain   4:     .19678 elapsed seconds
Timing for main: time 2016-02-05_13:04:00 on domain   2:    1.60240 elapsed seconds
Timing for main: time 2016-02-05_13:04:00 on domain   1:    5.14172 elapsed seconds
Timing for main: time 2016-02-05_13:04:13 on domain   3:     .17568 elapsed seconds
Timing for main: time 2016-02-05_13:04:26 on domain   3:     .18428 elapsed seconds
Timing for main: time 2016-02-05_13:04:40 on domain   3:     .16461 elapsed seconds
Timing for main: time 2016-02-05_13:04:20 on domain   4:     .20237 elapsed seconds
Timing for main: time 2016-02-05_13:04:40 on domain   4:     .19600 elapsed seconds
Timing for main: time 2016-02-05_13:04:40 on domain   2:    1.65396 elapsed seconds
Timing for main: time 2016-02-05_13:04:53 on domain   3:     .17036 elapsed seconds
Timing for main: time 2016-02-05_13:05:06 on domain   3:     .16238 elapsed seconds
Timing for main: time 2016-02-05_13:05:20 on domain   3:     .16611 elapsed seconds
Timing for main: time 2016-02-05_13:05:00 on domain   4:     .21365 elapsed seconds
Timing for main: time 2016-02-05_13:05:20 on domain   4:     .19230 elapsed seconds
Timing for main: time 2016-02-05_13:05:20 on domain   2:    1.60827 elapsed seconds
Timing for main: time 2016-02-05_13:05:33 on domain   3:     .17130 elapsed seconds
Timing for main: time 2016-02-05_13:05:46 on domain   3:     .16201 elapsed seconds
Timing for main: time 2016-02-05_13:06:00 on domain   3:     .16211 elapsed seconds
Timing for main: time 2016-02-05_13:05:40 on domain   4:     .20177 elapsed seconds
Timing for main: time 2016-02-05_13:06:00 on domain   4:     .20487 elapsed seconds
Timing for main: time 2016-02-05_13:06:00 on domain   2:    1.60236 elapsed seconds
Timing for main: time 2016-02-05_13:06:00 on domain   1:    5.19898 elapsed seconds
Timing for main: time 2016-02-05_13:06:13 on domain   3:     .17052 elapsed seconds
Timing for main: time 2016-02-05_13:06:26 on domain   3:     .16942 elapsed seconds
Timing for main: time 2016-02-05_13:06:40 on domain   3:     .16491 elapsed seconds
Timing for main: time 2016-02-05_13:06:20 on domain   4:     .20224 elapsed seconds
Timing for main: time 2016-02-05_13:06:40 on domain   4:     .26682 elapsed seconds
Timing for main: time 2016-02-05_13:06:40 on domain   2:    1.69016 elapsed seconds
Timing for main: time 2016-02-05_13:06:53 on domain   3:     .17058 elapsed seconds
Timing for main: time 2016-02-05_13:07:06 on domain   3:     .16188 elapsed seconds
Timing for main: time 2016-02-05_13:07:20 on domain   3:     .16198 elapsed seconds
Timing for main: time 2016-02-05_13:07:00 on domain   4:     .20170 elapsed seconds
Timing for main: time 2016-02-05_13:07:20 on domain   4:     .19451 elapsed seconds
Timing for main: time 2016-02-05_13:07:20 on domain   2:    1.60504 elapsed seconds
Timing for main: time 2016-02-05_13:07:33 on domain   3:     .17025 elapsed seconds
Timing for main: time 2016-02-05_13:07:46 on domain   3:     .16185 elapsed seconds
Timing for main: time 2016-02-05_13:08:00 on domain   3:     .16222 elapsed seconds
Timing for main: time 2016-02-05_13:07:40 on domain   4:     .20177 elapsed seconds
Timing for main: time 2016-02-05_13:08:00 on domain   4:     .19828 elapsed seconds
Timing for main: time 2016-02-05_13:08:00 on domain   2:    1.59554 elapsed seconds
Timing for main: time 2016-02-05_13:08:00 on domain   1:    5.22095 elapsed seconds
Timing for main: time 2016-02-05_13:08:13 on domain   3:     .17028 elapsed seconds
Timing for main: time 2016-02-05_13:08:26 on domain   3:     .16219 elapsed seconds
Timing for main: time 2016-02-05_13:08:40 on domain   3:     .16216 elapsed seconds
Timing for main: time 2016-02-05_13:08:20 on domain   4:     .20234 elapsed seconds
Timing for main: time 2016-02-05_13:08:40 on domain   4:     .19461 elapsed seconds
Timing for main: time 2016-02-05_13:08:40 on domain   2:    1.60734 elapsed seconds
Timing for main: time 2016-02-05_13:08:53 on domain   3:     .17039 elapsed seconds
Timing for main: time 2016-02-05_13:09:06 on domain   3:     .16169 elapsed seconds
Timing for main: time 2016-02-05_13:09:20 on domain   3:     .16231 elapsed seconds
Timing for main: time 2016-02-05_13:09:00 on domain   4:     .20204 elapsed seconds
Timing for main: time 2016-02-05_13:09:20 on domain   4:     .23502 elapsed seconds
Timing for main: time 2016-02-05_13:09:20 on domain   2:    1.70003 elapsed seconds
Timing for main: time 2016-02-05_13:09:33 on domain   3:     .17080 elapsed seconds
Timing for main: time 2016-02-05_13:09:46 on domain   3:     .16189 elapsed seconds
Timing for main: time 2016-02-05_13:10:00 on domain   3:     .16240 elapsed seconds
Timing for main: time 2016-02-05_13:09:40 on domain   4:     .20202 elapsed seconds
Timing for main: time 2016-02-05_13:10:00 on domain   4:     .20281 elapsed seconds
Timing for main: time 2016-02-05_13:10:00 on domain   2:    1.66055 elapsed seconds
Timing for main: time 2016-02-05_13:10:00 on domain   1:    5.29558 elapsed seconds
Timing for main: time 2016-02-05_13:10:13 on domain   3:     .17008 elapsed seconds
Timing for main: time 2016-02-05_13:10:26 on domain   3:     .16226 elapsed seconds
Timing for main: time 2016-02-05_13:10:40 on domain   3:     .16213 elapsed seconds
Timing for main: time 2016-02-05_13:10:20 on domain   4:     .20242 elapsed seconds
Timing for main: time 2016-02-05_13:10:40 on domain   4:     .19474 elapsed seconds
Timing for main: time 2016-02-05_13:10:40 on domain   2:    1.61043 elapsed seconds
Timing for main: time 2016-02-05_13:10:53 on domain   3:     .17028 elapsed seconds
Timing for main: time 2016-02-05_13:11:06 on domain   3:     .16191 elapsed seconds
Timing for main: time 2016-02-05_13:11:20 on domain   3:     .16215 elapsed seconds
Timing for main: time 2016-02-05_13:11:00 on domain   4:     .20210 elapsed seconds
Timing for main: time 2016-02-05_13:11:20 on domain   4:     .19445 elapsed seconds
Timing for main: time 2016-02-05_13:11:20 on domain   2:    1.59205 elapsed seconds
Timing for main: time 2016-02-05_13:11:33 on domain   3:     .17766 elapsed seconds
Timing for main: time 2016-02-05_13:11:46 on domain   3:     .16580 elapsed seconds
Timing for main: time 2016-02-05_13:12:00 on domain   3:     .16252 elapsed seconds
Timing for main: time 2016-02-05_13:11:40 on domain   4:     .20168 elapsed seconds
Timing for main: time 2016-02-05_13:12:00 on domain   4:     .19688 elapsed seconds
Timing for main: time 2016-02-05_13:12:00 on domain   2:    1.60568 elapsed seconds
Timing for main: time 2016-02-05_13:12:00 on domain   1:    5.14285 elapsed seconds
Timing for main: time 2016-02-05_13:12:13 on domain   3:     .17016 elapsed seconds
Timing for main: time 2016-02-05_13:12:26 on domain   3:     .16279 elapsed seconds
Timing for main: time 2016-02-05_13:12:40 on domain   3:     .16184 elapsed seconds
Timing for main: time 2016-02-05_13:12:20 on domain   4:     .20223 elapsed seconds
Timing for main: time 2016-02-05_13:12:40 on domain   4:     .19430 elapsed seconds
Timing for main: time 2016-02-05_13:12:40 on domain   2:    1.60655 elapsed seconds
Timing for main: time 2016-02-05_13:12:53 on domain   3:     .16995 elapsed seconds
Timing for main: time 2016-02-05_13:13:06 on domain   3:     .16521 elapsed seconds
Timing for main: time 2016-02-05_13:13:20 on domain   3:     .17870 elapsed seconds
Timing for main: time 2016-02-05_13:13:00 on domain   4:     .20172 elapsed seconds
Timing for main: time 2016-02-05_13:13:20 on domain   4:     .19499 elapsed seconds
Timing for main: time 2016-02-05_13:13:20 on domain   2:    1.61197 elapsed seconds
Timing for main: time 2016-02-05_13:13:33 on domain   3:     .17035 elapsed seconds
Timing for main: time 2016-02-05_13:13:46 on domain   3:     .17453 elapsed seconds
Timing for main: time 2016-02-05_13:14:00 on domain   3:     .16224 elapsed seconds
Timing for main: time 2016-02-05_13:13:40 on domain   4:     .20235 elapsed seconds
Timing for main: time 2016-02-05_13:14:00 on domain   4:     .19455 elapsed seconds
Timing for main: time 2016-02-05_13:14:00 on domain   2:    1.60480 elapsed seconds
Timing for main: time 2016-02-05_13:14:00 on domain   1:    5.15782 elapsed seconds
Timing for main: time 2016-02-05_13:14:13 on domain   3:     .17029 elapsed seconds
Timing for main: time 2016-02-05_13:14:26 on domain   3:     .17616 elapsed seconds
Timing for main: time 2016-02-05_13:14:40 on domain   3:     .16202 elapsed seconds
Timing for main: time 2016-02-05_13:14:20 on domain   4:     .20186 elapsed seconds
Timing for main: time 2016-02-05_13:14:40 on domain   4:     .19481 elapsed seconds
Timing for main: time 2016-02-05_13:14:40 on domain   2:    1.63168 elapsed seconds
Timing for main: time 2016-02-05_13:14:53 on domain   3:     .17019 elapsed seconds
Timing for main: time 2016-02-05_13:15:06 on domain   3:     .16200 elapsed seconds
Timing for main: time 2016-02-05_13:15:20 on domain   3:     .16201 elapsed seconds
Timing for main: time 2016-02-05_13:15:00 on domain   4:     .21055 elapsed seconds
Timing for main: time 2016-02-05_13:15:20 on domain   4:     .19448 elapsed seconds
Timing for main: time 2016-02-05_13:15:20 on domain   2:    1.59993 elapsed seconds
Timing for main: time 2016-02-05_13:15:33 on domain   3:     .17066 elapsed seconds
Timing for main: time 2016-02-05_13:15:46 on domain   3:     .16231 elapsed seconds
Timing for main: time 2016-02-05_13:16:00 on domain   3:     .16190 elapsed seconds
Timing for main: time 2016-02-05_13:15:40 on domain   4:     .20207 elapsed seconds
Timing for main: time 2016-02-05_13:16:00 on domain   4:     .19462 elapsed seconds
Timing for main: time 2016-02-05_13:16:00 on domain   2:    1.59209 elapsed seconds
Timing for main: time 2016-02-05_13:16:00 on domain   1:    5.15078 elapsed seconds
Timing for main: time 2016-02-05_13:16:13 on domain   3:     .17067 elapsed seconds
Timing for main: time 2016-02-05_13:16:26 on domain   3:     .16519 elapsed seconds
Timing for main: time 2016-02-05_13:16:40 on domain   3:     .16950 elapsed seconds
Timing for main: time 2016-02-05_13:16:20 on domain   4:     .20429 elapsed seconds
Timing for main: time 2016-02-05_13:16:40 on domain   4:     .19389 elapsed seconds
Timing for main: time 2016-02-05_13:16:40 on domain   2:    1.61891 elapsed seconds
Timing for main: time 2016-02-05_13:16:53 on domain   3:     .16435 elapsed seconds
Timing for main: time 2016-02-05_13:17:06 on domain   3:     .16225 elapsed seconds
Timing for main: time 2016-02-05_13:17:20 on domain   3:     .16209 elapsed seconds
Timing for main: time 2016-02-05_13:17:00 on domain   4:     .20191 elapsed seconds
Timing for main: time 2016-02-05_13:17:20 on domain   4:     .20104 elapsed seconds
Timing for main: time 2016-02-05_13:17:20 on domain   2:    1.60488 elapsed seconds
Timing for main: time 2016-02-05_13:17:33 on domain   3:     .17443 elapsed seconds
[...]
Timing for main: time 2016-02-05_17:36:00 on domain   2:    1.60982 elapsed seconds
Timing for main: time 2016-02-05_17:36:00 on domain   1:    5.17746 elapsed seconds
Timing for main: time 2016-02-05_17:36:13 on domain   3:     .17208 elapsed seconds
Timing for main: time 2016-02-05_17:36:26 on domain   3:     .16371 elapsed seconds
Timing for main: time 2016-02-05_17:36:40 on domain   3:     .16383 elapsed seconds
Timing for main: time 2016-02-05_17:36:20 on domain   4:     .20177 elapsed seconds
Timing for main: time 2016-02-05_17:36:40 on domain   4:     .19554 elapsed seconds
Timing for main: time 2016-02-05_17:36:40 on domain   2:    1.61428 elapsed seconds
Timing for main: time 2016-02-05_17:36:53 on domain   3:     .17328 elapsed seconds
Timing for main: time 2016-02-05_17:37:06 on domain   3:     .16384 elapsed seconds
Timing for main: time 2016-02-05_17:37:20 on domain   3:     .17130 elapsed seconds
Timing for main: time 2016-02-05_17:37:00 on domain   4:     .20178 elapsed seconds
Timing for main: time 2016-02-05_17:37:20 on domain   4:     .19552 elapsed seconds
Timing for main: time 2016-02-05_17:37:20 on domain   2:    1.60637 elapsed seconds
Timing for main: time 2016-02-05_17:37:33 on domain   3:     .17331 elapsed seconds
Timing for main: time 2016-02-05_17:37:46 on domain   3:     .17365 elapsed seconds
Timing for main: time 2016-02-05_17:38:00 on domain   3:     .16480 elapsed seconds
Timing for main: time 2016-02-05_17:37:40 on domain   4:     .20222 elapsed seconds
Timing for main: time 2016-02-05_17:38:00 on domain   4:     .19560 elapsed seconds
Timing for main: time 2016-02-05_17:38:00 on domain   2:    1.61441 elapsed seconds
Timing for main: time 2016-02-05_17:38:00 on domain   1:    5.16599 elapsed seconds
Timing for main: time 2016-02-05_17:38:13 on domain   3:     .17329 elapsed seconds
Timing for main: time 2016-02-05_17:38:26 on domain   3:     .16379 elapsed seconds
Timing for main: time 2016-02-05_17:38:40 on domain   3:     .16401 elapsed seconds
Timing for main: time 2016-02-05_17:38:20 on domain   4:     .20142 elapsed seconds
Timing for main: time 2016-02-05_17:38:40 on domain   4:     .19581 elapsed seconds
Timing for main: time 2016-02-05_17:38:40 on domain   2:    1.61327 elapsed seconds
Timing for main: time 2016-02-05_17:38:53 on domain   3:     .17331 elapsed seconds
Timing for main: time 2016-02-05_17:39:06 on domain   3:     .16694 elapsed seconds
Timing for main: time 2016-02-05_17:39:20 on domain   3:     .16385 elapsed seconds
Timing for main: time 2016-02-05_17:39:00 on domain   4:     .20172 elapsed seconds
Timing for main: time 2016-02-05_17:39:20 on domain   4:     .19554 elapsed seconds
Timing for main: time 2016-02-05_17:39:20 on domain   2:    1.60199 elapsed seconds
Timing for main: time 2016-02-05_17:39:33 on domain   3:     .17380 elapsed seconds
Timing for main: time 2016-02-05_17:39:46 on domain   3:     .16603 elapsed seconds
Timing for main: time 2016-02-05_17:40:00 on domain   3:     .16544 elapsed seconds
Timing for main: time 2016-02-05_17:39:40 on domain   4:     .20198 elapsed seconds
Timing for main: time 2016-02-05_17:40:00 on domain   4:     .20917 elapsed seconds
Timing for main: time 2016-02-05_17:40:00 on domain   2:    1.61844 elapsed seconds
Timing for main: time 2016-02-05_17:40:00 on domain   1:    5.16538 elapsed seconds
Timing for main: time 2016-02-05_17:40:13 on domain   3:     .20728 elapsed seconds
Timing for main: time 2016-02-05_17:40:26 on domain   3:     .20037 elapsed seconds
Timing for main: time 2016-02-05_17:40:40 on domain   3:     .16694 elapsed seconds
Timing for main: time 2016-02-05_17:40:20 on domain   4:     .20285 elapsed seconds
Timing for main: time 2016-02-05_17:40:40 on domain   4:     .20087 elapsed seconds
Timing for main: time 2016-02-05_17:40:40 on domain   2:    1.70003 elapsed seconds
Timing for main: time 2016-02-05_17:40:53 on domain   3:     .17377 elapsed seconds
Timing for main: time 2016-02-05_17:41:06 on domain   3:     .16596 elapsed seconds
Timing for main: time 2016-02-05_17:41:20 on domain   3:     .16406 elapsed seconds
Timing for main: time 2016-02-05_17:41:00 on domain   4:     .20179 elapsed seconds
Timing for main: time 2016-02-05_17:41:20 on domain   4:     .19602 elapsed seconds
Timing for main: time 2016-02-05_17:41:20 on domain   2:    1.61125 elapsed seconds
Timing for main: time 2016-02-05_17:41:33 on domain   3:     .17328 elapsed seconds
Timing for main: time 2016-02-05_17:41:46 on domain   3:     .16343 elapsed seconds
Timing for main: time 2016-02-05_17:42:00 on domain   3:     .16414 elapsed seconds
Timing for main: time 2016-02-05_17:41:40 on domain   4:     .20175 elapsed seconds
Timing for main: time 2016-02-05_17:42:00 on domain   4:     .19638 elapsed seconds
Timing for main: time 2016-02-05_17:42:00 on domain   2:    1.59971 elapsed seconds
Timing for main: time 2016-02-05_17:42:00 on domain   1:    5.24931 elapsed seconds
Timing for main: time 2016-02-05_17:42:13 on domain   3:     .17350 elapsed seconds
Timing for main: time 2016-02-05_17:42:26 on domain   3:     .17213 elapsed seconds
Timing for main: time 2016-02-05_17:42:40 on domain   3:     .16397 elapsed seconds
Timing for main: time 2016-02-05_17:42:20 on domain   4:     .20200 elapsed seconds
Timing for main: time 2016-02-05_17:42:40 on domain   4:     .20091 elapsed seconds
Timing for main: time 2016-02-05_17:42:40 on domain   2:    1.62669 elapsed seconds
Timing for main: time 2016-02-05_17:42:53 on domain   3:     .17336 elapsed seconds
Timing for main: time 2016-02-05_17:43:06 on domain   3:     .16393 elapsed seconds
Timing for main: time 2016-02-05_17:43:20 on domain   3:     .16441 elapsed seconds
Timing for main: time 2016-02-05_17:43:00 on domain   4:     .20362 elapsed seconds
Timing for main: time 2016-02-05_17:43:20 on domain   4:     .19466 elapsed seconds
Timing for main: time 2016-02-05_17:43:20 on domain   2:    1.60067 elapsed seconds
Timing for main: time 2016-02-05_17:43:33 on domain   3:     .17319 elapsed seconds
Timing for main: time 2016-02-05_17:43:46 on domain   3:     .16388 elapsed seconds
Timing for main: time 2016-02-05_17:44:00 on domain   3:     .16403 elapsed seconds
Timing for main: time 2016-02-05_17:43:40 on domain   4:     .20149 elapsed seconds
Timing for main: time 2016-02-05_17:44:00 on domain   4:     .19623 elapsed seconds
Timing for main: time 2016-02-05_17:44:00 on domain   2:    1.59945 elapsed seconds
Timing for main: time 2016-02-05_17:44:00 on domain   1:    5.15780 elapsed seconds
Timing for main: time 2016-02-05_17:44:13 on domain   3:     .17340 elapsed seconds
Timing for main: time 2016-02-05_17:44:26 on domain   3:     .16384 elapsed seconds
Timing for main: time 2016-02-05_17:44:40 on domain   3:     .16462 elapsed seconds
Timing for main: time 2016-02-05_17:44:20 on domain   4:     .20179 elapsed seconds
Timing for main: time 2016-02-05_17:44:40 on domain   4:     .23861 elapsed seconds
Timing for main: time 2016-02-05_17:44:40 on domain   2:    1.65753 elapsed seconds
Timing for main: time 2016-02-05_17:44:53 on domain   3:     .17323 elapsed seconds
Timing for main: time 2016-02-05_17:45:06 on domain   3:     .16394 elapsed seconds
Timing for main: time 2016-02-05_17:45:20 on domain   3:     .16543 elapsed seconds
Timing for main: time 2016-02-05_17:45:00 on domain   4:     .21003 elapsed seconds
Timing for main: time 2016-02-05_17:45:20 on domain   4:     .19582 elapsed seconds
Timing for main: time 2016-02-05_17:45:20 on domain   2:    1.64683 elapsed seconds
Timing for main: time 2016-02-05_17:45:33 on domain   3:     .17342 elapsed seconds
Timing for main: time 2016-02-05_17:45:46 on domain   3:     .16418 elapsed seconds
Timing for main: time 2016-02-05_17:46:00 on domain   3:     .16397 elapsed seconds
Timing for main: time 2016-02-05_17:45:40 on domain   4:     .20167 elapsed seconds
Timing for main: time 2016-02-05_17:46:00 on domain   4:     .19615 elapsed seconds
Timing for main: time 2016-02-05_17:46:00 on domain   2:    1.66044 elapsed seconds
Timing for main: time 2016-02-05_17:46:00 on domain   1:    5.29513 elapsed seconds
Timing for main: time 2016-02-05_17:46:13 on domain   3:     .17694 elapsed seconds
Timing for main: time 2016-02-05_17:46:26 on domain   3:     .16411 elapsed seconds
Timing for main: time 2016-02-05_17:46:40 on domain   3:     .16420 elapsed seconds
Timing for main: time 2016-02-05_17:46:20 on domain   4:     .20241 elapsed seconds
Timing for main: time 2016-02-05_17:46:40 on domain   4:     .19508 elapsed seconds
Timing for main: time 2016-02-05_17:46:40 on domain   2:    1.62606 elapsed seconds
Timing for main: time 2016-02-05_17:46:53 on domain   3:     .17421 elapsed seconds
Timing for main: time 2016-02-05_17:47:06 on domain   3:     .16401 elapsed seconds
Timing for main: time 2016-02-05_17:47:20 on domain   3:     .16386 elapsed seconds
Timing for main: time 2016-02-05_17:47:00 on domain   4:     .20295 elapsed seconds
Timing for main: time 2016-02-05_17:47:20 on domain   4:     .19713 elapsed seconds
Timing for main: time 2016-02-05_17:47:20 on domain   2:    1.60618 elapsed seconds
Timing for main: time 2016-02-05_17:47:33 on domain   3:     .18065 elapsed seconds
Timing for main: time 2016-02-05_17:47:46 on domain   3:     .16384 elapsed seconds
Timing for main: time 2016-02-05_17:48:00 on domain   3:     .16394 elapsed seconds
Timing for main: time 2016-02-05_17:47:40 on domain   4:     .20084 elapsed seconds
Timing for main: time 2016-02-05_17:48:00 on domain   4:     .19581 elapsed seconds
Timing for main: time 2016-02-05_17:48:00 on domain   2:    1.60614 elapsed seconds
Timing for main: time 2016-02-05_17:48:00 on domain   1:    5.17596 elapsed seconds
Timing for main: time 2016-02-05_17:48:13 on domain   3:     .17395 elapsed seconds
Timing for main: time 2016-02-05_17:48:26 on domain   3:     .16442 elapsed seconds
Timing for main: time 2016-02-05_17:48:40 on domain   3:     .16811 elapsed seconds
Timing for main: time 2016-02-05_17:48:20 on domain   4:     .20154 elapsed seconds
Timing for main: time 2016-02-05_17:48:40 on domain   4:     .19666 elapsed seconds
Timing for main: time 2016-02-05_17:48:40 on domain   2:    1.61933 elapsed seconds
Timing for main: time 2016-02-05_17:48:53 on domain   3:     .17325 elapsed seconds
Timing for main: time 2016-02-05_17:49:06 on domain   3:     .17992 elapsed seconds
Timing for main: time 2016-02-05_17:49:20 on domain   3:     .24895 elapsed seconds
Timing for main: time 2016-02-05_17:49:00 on domain   4:     .20359 elapsed seconds
Timing for main: time 2016-02-05_17:49:20 on domain   4:     .19562 elapsed seconds
Timing for main: time 2016-02-05_17:49:20 on domain   2:    1.72239 elapsed seconds
Timing for main: time 2016-02-05_17:49:33 on domain   3:     .17373 elapsed seconds
Timing for main: time 2016-02-05_17:49:46 on domain   3:     .16324 elapsed seconds
Timing for main: time 2016-02-05_17:50:00 on domain   3:     .16419 elapsed seconds
Timing for main: time 2016-02-05_17:49:40 on domain   4:     .20184 elapsed seconds
Timing for main: time 2016-02-05_17:50:00 on domain   4:     .20483 elapsed seconds
Timing for main: time 2016-02-05_17:50:00 on domain   2:    1.60850 elapsed seconds
Timing for main: time 2016-02-05_17:50:00 on domain   1:    5.28077 elapsed seconds
Timing for main: time 2016-02-05_17:50:13 on domain   3:     .17416 elapsed seconds
Timing for main: time 2016-02-05_17:50:26 on domain   3:     .18060 elapsed seconds
Timing for main: time 2016-02-05_17:50:40 on domain   3:     .16465 elapsed seconds
Timing for main: time 2016-02-05_17:50:20 on domain   4:     .20203 elapsed seconds
Timing for main: time 2016-02-05_17:50:40 on domain   4:     .19530 elapsed seconds
Timing for main: time 2016-02-05_17:50:40 on domain   2:    1.63068 elapsed seconds
Timing for main: time 2016-02-05_17:50:53 on domain   3:     .17391 elapsed seconds
Timing for main: time 2016-02-05_17:51:06 on domain   3:     .16406 elapsed seconds
Timing for main: time 2016-02-05_17:51:20 on domain   3:     .16405 elapsed seconds
Timing for main: time 2016-02-05_17:51:00 on domain   4:     .20333 elapsed seconds
Timing for main: time 2016-02-05_17:51:20 on domain   4:     .19543 elapsed seconds
Timing for main: time 2016-02-05_17:51:20 on domain   2:    1.60227 elapsed seconds
Timing for main: time 2016-02-05_17:51:33 on domain   3:     .17327 elapsed seconds
Timing for main: time 2016-02-05_17:51:46 on domain   3:     .16395 elapsed seconds
Timing for main: time 2016-02-05_17:52:00 on domain   3:     .16397 elapsed seconds
Timing for main: time 2016-02-05_17:51:40 on domain   4:     .20181 elapsed seconds
Timing for main: time 2016-02-05_17:52:00 on domain   4:     .19549 elapsed seconds
Timing for main: time 2016-02-05_17:52:00 on domain   2:    1.60801 elapsed seconds
Timing for main: time 2016-02-05_17:52:00 on domain   1:    5.17128 elapsed seconds
Timing for main: time 2016-02-05_17:52:13 on domain   3:     .17326 elapsed seconds
Timing for main: time 2016-02-05_17:52:26 on domain   3:     .16539 elapsed seconds
Timing for main: time 2016-02-05_17:52:40 on domain   3:     .17117 elapsed seconds
Timing for main: time 2016-02-05_17:52:20 on domain   4:     .20234 elapsed seconds
Timing for main: time 2016-02-05_17:52:40 on domain   4:     .20024 elapsed seconds
Timing for main: time 2016-02-05_17:52:40 on domain   2:    1.62675 elapsed seconds
Timing for main: time 2016-02-05_17:52:53 on domain   3:     .17325 elapsed seconds
Timing for main: time 2016-02-05_17:53:06 on domain   3:     .16374 elapsed seconds
Timing for main: time 2016-02-05_17:53:20 on domain   3:     .16396 elapsed seconds
Timing for main: time 2016-02-05_17:53:00 on domain   4:     .20141 elapsed seconds
Timing for main: time 2016-02-05_17:53:20 on domain   4:     .19632 elapsed seconds
Timing for main: time 2016-02-05_17:53:20 on domain   2:    1.59904 elapsed seconds
Timing for main: time 2016-02-05_17:53:33 on domain   3:     .17309 elapsed seconds
Timing for main: time 2016-02-05_17:53:46 on domain   3:     .16354 elapsed seconds
Timing for main: time 2016-02-05_17:54:00 on domain   3:     .16430 elapsed seconds
Timing for main: time 2016-02-05_17:53:40 on domain   4:     .20193 elapsed seconds
Timing for main: time 2016-02-05_17:54:00 on domain   4:     .19534 elapsed seconds
Timing for main: time 2016-02-05_17:54:00 on domain   2:    1.59866 elapsed seconds
Timing for main: time 2016-02-05_17:54:00 on domain   1:    5.17088 elapsed seconds
Timing for main: time 2016-02-05_17:54:13 on domain   3:     .17338 elapsed seconds
Timing for main: time 2016-02-05_17:54:26 on domain   3:     .16440 elapsed seconds
Timing for main: time 2016-02-05_17:54:40 on domain   3:     .16376 elapsed seconds
Timing for main: time 2016-02-05_17:54:20 on domain   4:     .20163 elapsed seconds
Timing for main: time 2016-02-05_17:54:40 on domain   4:     .19742 elapsed seconds
Timing for main: time 2016-02-05_17:54:40 on domain   2:    1.61557 elapsed seconds
Timing for main: time 2016-02-05_17:54:53 on domain   3:     .17339 elapsed seconds
Timing for main: time 2016-02-05_17:55:06 on domain   3:     .16424 elapsed seconds
Timing for main: time 2016-02-05_17:55:20 on domain   3:     .16354 elapsed seconds
Timing for main: time 2016-02-05_17:55:00 on domain   4:     .20997 elapsed seconds
Timing for main: time 2016-02-05_17:55:20 on domain   4:     .19577 elapsed seconds
Timing for main: time 2016-02-05_17:55:20 on domain   2:    1.60791 elapsed seconds
Timing for main: time 2016-02-05_17:55:33 on domain   3:     .17319 elapsed seconds
Timing for main: time 2016-02-05_17:55:46 on domain   3:     .16387 elapsed seconds
Timing for main: time 2016-02-05_17:56:00 on domain   3:     .16347 elapsed seconds
Timing for main: time 2016-02-05_17:55:40 on domain   4:     .20141 elapsed seconds
Timing for main: time 2016-02-05_17:56:00 on domain   4:     .19579 elapsed seconds
Timing for main: time 2016-02-05_17:56:00 on domain   2:    1.59855 elapsed seconds
Timing for main: time 2016-02-05_17:56:00 on domain   1:    5.15236 elapsed seconds
Timing for main: time 2016-02-05_17:56:13 on domain   3:     .17414 elapsed seconds
Timing for main: time 2016-02-05_17:56:26 on domain   3:     .16532 elapsed seconds
Timing for main: time 2016-02-05_17:56:40 on domain   3:     .16463 elapsed seconds
Timing for main: time 2016-02-05_17:56:20 on domain   4:     .20544 elapsed seconds
Timing for main: time 2016-02-05_17:56:40 on domain   4:     .19302 elapsed seconds
Timing for main: time 2016-02-05_17:56:40 on domain   2:    1.61702 elapsed seconds
Timing for main: time 2016-02-05_17:56:53 on domain   3:     .17332 elapsed seconds
Timing for main: time 2016-02-05_17:57:06 on domain   3:     .16385 elapsed seconds
Timing for main: time 2016-02-05_17:57:20 on domain   3:     .16460 elapsed seconds
Timing for main: time 2016-02-05_17:57:00 on domain   4:     .20161 elapsed seconds
Timing for main: time 2016-02-05_17:57:20 on domain   4:     .19537 elapsed seconds
Timing for main: time 2016-02-05_17:57:20 on domain   2:    1.60774 elapsed seconds
Timing for main: time 2016-02-05_17:57:33 on domain   3:     .17320 elapsed seconds
Timing for main: time 2016-02-05_17:57:46 on domain   3:     .17106 elapsed seconds
Timing for main: time 2016-02-05_17:58:00 on domain   3:     .16377 elapsed seconds
Timing for main: time 2016-02-05_17:57:40 on domain   4:     .20299 elapsed seconds
Timing for main: time 2016-02-05_17:58:00 on domain   4:     .19461 elapsed seconds
Timing for main: time 2016-02-05_17:58:00 on domain   2:    1.60610 elapsed seconds
Timing for main: time 2016-02-05_17:58:00 on domain   1:    5.16108 elapsed seconds
  photolysis_driver: called for domain  1
Timing for main: time 2016-02-05_17:58:13 on domain   3:     .17371 elapsed seconds
Timing for main: time 2016-02-05_17:58:26 on domain   3:     .16382 elapsed seconds
Timing for main: time 2016-02-05_17:58:40 on domain   3:     .16359 elapsed seconds
Timing for main: time 2016-02-05_17:58:20 on domain   4:     .20382 elapsed seconds
Timing for main: time 2016-02-05_17:58:40 on domain   4:     .19546 elapsed seconds
Timing for main: time 2016-02-05_17:58:40 on domain   2:    1.61887 elapsed seconds
Timing for main: time 2016-02-05_17:58:53 on domain   3:     .17349 elapsed seconds
Timing for main: time 2016-02-05_17:59:06 on domain   3:     .16347 elapsed seconds
Timing for main: time 2016-02-05_17:59:20 on domain   3:     .16414 elapsed seconds
Timing for main: time 2016-02-05_17:59:00 on domain   4:     .19986 elapsed seconds
Timing for main: time 2016-02-05_17:59:20 on domain   4:     .19555 elapsed seconds
Timing for main: time 2016-02-05_17:59:20 on domain   2:    1.59895 elapsed seconds
  photolysis_driver: called for domain  2
Timing for main: time 2016-02-05_17:59:33 on domain   3:     .20127 elapsed seconds
Timing for main: time 2016-02-05_17:59:46 on domain   3:     .20727 elapsed seconds
  photolysis_driver: called for domain  3
Timing for main: time 2016-02-05_18:00:00 on domain   3:     .94196 elapsed seconds
Timing for Writing wrfout_d03_2016-02-05_18:00:00 for domain        3:    1.81423 elapsed seconds
Timing for main: time 2016-02-05_17:59:40 on domain   4:     .23807 elapsed seconds
  photolysis_driver: called for domain  4
Timing for main: time 2016-02-05_18:00:00 on domain   4:    1.11496 elapsed seconds
Timing for Writing wrfout_d04_2016-02-05_18:00:00 for domain        4:    2.05876 elapsed seconds
Timing for main: time 2016-02-05_18:00:00 on domain   2:    8.22305 elapsed seconds
Timing for Writing wrfout_d02_2016-02-05_18:00:00 for domain        2:    2.83346 elapsed seconds
Timing for main: time 2016-02-05_18:00:00 on domain   1:   15.12042 elapsed seconds
Timing for Writing wrfout_d01_2016-02-05_18:00:00 for domain        1:    2.47063 elapsed seconds
 d01 2016-02-05_18:00:00 wrf: SUCCESS COMPLETE WRF
