taskid: 0 hostname: p10a51.pbm.ihost.com
  Ntasks in X  10 , ntasks in Y  40
 Setting blank km_opt entries to domain #1 values.
  --> The km_opt entry in the namelist.input is now max_domains.
 Setting blank diff_opt entries to domain #1 values.
  --> The diff_opt entry in the namelist.input is now max_domains.
 --- WARNING: traj_opt is zero, but num_traj is not zero; setting num_traj to zero.
 --- NOTE: hypsometric_opt is 2, setting adjust_heights = F
 --- NOTE: sst_update is 0, setting io_form_auxinput4 = 0 and auxinput4_interval = 0 for all domains
 --- NOTE: sst_update is 0, setting io_form_auxinput4 = 0 and auxinput4_interval = 0 for all domains
 --- NOTE: sst_update is 0, setting io_form_auxinput4 = 0 and auxinput4_interval = 0 for all domains
 --- NOTE: sst_update is 0, setting io_form_auxinput4 = 0 and auxinput4_interval = 0 for all domains
 --- NOTE: grid_fdda is 0 for domain      1, setting gfdda interval and ending time to 0 for that domain.
 --- NOTE: both grid_sfdda and pxlsm_soil_nudge are 0 for domain      1, setting sgfdda interval and ending time to 0 for that domain.
 --- NOTE: obs_nudge_opt is 0 for domain      1, setting obs nudging interval and ending time to 0 for that domain.
 --- NOTE: grid_fdda is 0 for domain      2, setting gfdda interval and ending time to 0 for that domain.
 --- NOTE: both grid_sfdda and pxlsm_soil_nudge are 0 for domain      2, setting sgfdda interval and ending time to 0 for that domain.
 --- NOTE: obs_nudge_opt is 0 for domain      2, setting obs nudging interval and ending time to 0 for that domain.
 --- NOTE: grid_fdda is 0 for domain      3, setting gfdda interval and ending time to 0 for that domain.
 --- NOTE: both grid_sfdda and pxlsm_soil_nudge are 0 for domain      3, setting sgfdda interval and ending time to 0 for that domain.
 --- NOTE: obs_nudge_opt is 0 for domain      3, setting obs nudging interval and ending time to 0 for that domain.
 --- NOTE: grid_fdda is 0 for domain      4, setting gfdda interval and ending time to 0 for that domain.
 --- NOTE: both grid_sfdda and pxlsm_soil_nudge are 0 for domain      4, setting sgfdda interval and ending time to 0 for that domain.
 --- NOTE: obs_nudge_opt is 0 for domain      4, setting obs nudging interval and ending time to 0 for that domain.
 bl_pbl_physics /= 4, implies mfshconv must be 0, resetting
 --- NOTE: num_soil_layers has been set to      4
 WRF V3.6 MODEL
  *************************************
  Parent domain
  ids,ide,jds,jde  1 271 1 181
  ims,ime,jms,jme  -4 34 -4 12
  ips,ipe,jps,jpe  1 27 1 5
  *************************************
 DYNAMICS OPTION: Eulerian Mass Coordinate
    alloc_space_field: domain  1 ,  69115472  bytes allocated
   med_initialdata_input: calling input_input
Timing for processing wrfinput file (stream 0) for domain        1:    4.08565 elapsed seconds
 INPUT LandUse = "USGS"
  LANDUSE TYPE = "USGS" FOUND 33  CATEGORIES 2  SEASONS WATER CATEGORY =  16  SNOW CATEGORY =  24
 INITIALIZE THREE Noah LSM RELATED TABLES
  LANDUSE TYPE = USGS FOUND 27  CATEGORIES
  INPUT SOIL TEXTURE CLASSIFICATION = STAS
  SOIL TEXTURE CLASSIFICATION = STAS FOUND 19  CATEGORIES
 *********************************************************************
 *             PROGRAM:WRF/CHEM V3.6 MODEL
 *                                                                   *
 *    PLEASE REPORT ANY BUGS TO WRF/CHEM HELP at                     *
 *                                                                   *
 *              wrfchemhelp.gsd@noaa.gov                             *
 *                                                                   *
 *********************************************************************
 WARNING: dust option 1 currently works only with the GOCART aerosol option.
 WARNING: sea salt option 1 currently works only with the GOCART aerosol option.
  *************************************
  Nesting domain
  ids,ide,jds,jde  1 361 1 253
  ims,ime,jms,jme  -4 48 -4 18
  ips,ipe,jps,jpe  1 36 1 7
  INTERMEDIATE domain
  ids,ide,jds,jde  74 199 47 136
  ims,ime,jms,jme  69 97 42 60
  ips,ipe,jps,jpe  72 87 45 50
  *************************************
 d01 2016-02-05_12:00:00  alloc_space_field: domain  2 ,  122968160  bytes allocated
 d01 2016-02-05_12:00:00 *** Initializing nest domain # 2 from an input file. ***
 d01 2016-02-05_12:00:00 med_initialdata_input: calling input_input
Timing for processing wrfinput file (stream 0) for domain        2:    6.48394 elapsed seconds
 INPUT LandUse = "USGS"
  LANDUSE TYPE = "USGS" FOUND 33  CATEGORIES 2  SEASONS WATER CATEGORY =  16  SNOW CATEGORY =  24
 INITIALIZE THREE Noah LSM RELATED TABLES
  LANDUSE TYPE = USGS FOUND 27  CATEGORIES
  INPUT SOIL TEXTURE CLASSIFICATION = STAS
  SOIL TEXTURE CLASSIFICATION = STAS FOUND 19  CATEGORIES
 *********************************************************************
 *             PROGRAM:WRF/CHEM V3.6 MODEL
 *                                                                   *
 *    PLEASE REPORT ANY BUGS TO WRF/CHEM HELP at                     *
 *                                                                   *
 *              wrfchemhelp.gsd@noaa.gov                             *
 *                                                                   *
 *********************************************************************
 WARNING: dust option 1 currently works only with the GOCART aerosol option.
 WARNING: sea salt option 1 currently works only with the GOCART aerosol option.
 INPUT LandUse = "USGS"
  LANDUSE TYPE = "USGS" FOUND 33  CATEGORIES 2  SEASONS WATER CATEGORY =  16  SNOW CATEGORY =  24
 INITIALIZE THREE Noah LSM RELATED TABLES
  LANDUSE TYPE = USGS FOUND 27  CATEGORIES
  INPUT SOIL TEXTURE CLASSIFICATION = STAS
  SOIL TEXTURE CLASSIFICATION = STAS FOUND 19  CATEGORIES
 *********************************************************************
 *             PROGRAM:WRF/CHEM V3.6 MODEL
 *                                                                   *
 *    PLEASE REPORT ANY BUGS TO WRF/CHEM HELP at                     *
 *                                                                   *
 *              wrfchemhelp.gsd@noaa.gov                             *
 *                                                                   *
 *********************************************************************
 WARNING: dust option 1 currently works only with the GOCART aerosol option.
 WARNING: sea salt option 1 currently works only with the GOCART aerosol option.
 INPUT LandUse = "USGS"
  LANDUSE TYPE = "USGS" FOUND 33  CATEGORIES 2  SEASONS WATER CATEGORY =  16  SNOW CATEGORY =  24
 INITIALIZE THREE Noah LSM RELATED TABLES
  LANDUSE TYPE = USGS FOUND 27  CATEGORIES
  INPUT SOIL TEXTURE CLASSIFICATION = STAS
  SOIL TEXTURE CLASSIFICATION = STAS FOUND 19  CATEGORIES
 *********************************************************************
 *             PROGRAM:WRF/CHEM V3.6 MODEL
 *                                                                   *
 *    PLEASE REPORT ANY BUGS TO WRF/CHEM HELP at                     *
 *                                                                   *
 *              wrfchemhelp.gsd@noaa.gov                             *
 *                                                                   *
 *********************************************************************
 WARNING: dust option 1 currently works only with the GOCART aerosol option.
 WARNING: sea salt option 1 currently works only with the GOCART aerosol option.
Timing for Writing wrfout_d01_2016-02-05_12:00:00 for domain        1:    2.35944 elapsed seconds
  mediation_integrate: med_read_wrf_chem_emissions: Open file wrfchemi_12z_d01
  HOURLY EMISSIONS UPDATE TIME         .0        .0
 mediation_integrate: med_read_wrf_chem_emissions: Read emissions for time 2016-02-05_12:00:00
 **WARNING** Time in input file not being checked **WARNING**
Timing for processing lateral boundary for domain        1:    3.75194 elapsed seconds
  Tile Strategy is not specified. Assuming 1D-Y
 WRF TILE   1 IS      1 IE     27 JS      1 JE      5
 WRF NUMBER OF TILES =   1
  photolysis_driver: called for domain  1
  *************************************
  Nesting domain
  ids,ide,jds,jde  1 307 1 241
  ims,ime,jms,jme  -4 42 -4 18
  ips,ipe,jps,jpe  1 31 1 6
  INTERMEDIATE domain
  ids,ide,jds,jde  124 231 35 120
  ims,ime,jms,jme  119 145 30 48
  ips,ipe,jps,jpe  122 135 33 38
  *************************************
 d02 2016-02-05_12:00:00  alloc_space_field: domain  3 ,  109421132  bytes allocated
 d02 2016-02-05_12:00:00  alloc_space_field: domain  3 ,  6461748  bytes allocated
 d02 2016-02-05_12:00:00 *** Initializing nest domain # 3 from an input file. ***
 d02 2016-02-05_12:00:00 med_initialdata_input: calling input_input
Timing for processing wrfinput file (stream 0) for domain        3:    5.27225 elapsed seconds
 INPUT LandUse = "USGS"
  LANDUSE TYPE = "USGS" FOUND 33  CATEGORIES 2  SEASONS WATER CATEGORY =  16  SNOW CATEGORY =  24
 INITIALIZE THREE Noah LSM RELATED TABLES
  LANDUSE TYPE = USGS FOUND 27  CATEGORIES
  INPUT SOIL TEXTURE CLASSIFICATION = STAS
  SOIL TEXTURE CLASSIFICATION = STAS FOUND 19  CATEGORIES
 *********************************************************************
 *             PROGRAM:WRF/CHEM V3.6 MODEL
 *                                                                   *
 *    PLEASE REPORT ANY BUGS TO WRF/CHEM HELP at                     *
 *                                                                   *
 *              wrfchemhelp.gsd@noaa.gov                             *
 *                                                                   *
 *********************************************************************
 WARNING: dust option 1 currently works only with the GOCART aerosol option.
 WARNING: sea salt option 1 currently works only with the GOCART aerosol option.
 INPUT LandUse = "USGS"
  LANDUSE TYPE = "USGS" FOUND 33  CATEGORIES 2  SEASONS WATER CATEGORY =  16  SNOW CATEGORY =  24
 INITIALIZE THREE Noah LSM RELATED TABLES
  LANDUSE TYPE = USGS FOUND 27  CATEGORIES
  INPUT SOIL TEXTURE CLASSIFICATION = STAS
  SOIL TEXTURE CLASSIFICATION = STAS FOUND 19  CATEGORIES
 *********************************************************************
 *             PROGRAM:WRF/CHEM V3.6 MODEL
 *                                                                   *
 *    PLEASE REPORT ANY BUGS TO WRF/CHEM HELP at                     *
 *                                                                   *
 *              wrfchemhelp.gsd@noaa.gov                             *
 *                                                                   *
 *********************************************************************
 WARNING: dust option 1 currently works only with the GOCART aerosol option.
 WARNING: sea salt option 1 currently works only with the GOCART aerosol option.
 INPUT LandUse = "USGS"
  LANDUSE TYPE = "USGS" FOUND 33  CATEGORIES 2  SEASONS WATER CATEGORY =  16  SNOW CATEGORY =  24
 INITIALIZE THREE Noah LSM RELATED TABLES
  LANDUSE TYPE = USGS FOUND 27  CATEGORIES
  INPUT SOIL TEXTURE CLASSIFICATION = STAS
  SOIL TEXTURE CLASSIFICATION = STAS FOUND 19  CATEGORIES
 *********************************************************************
 *             PROGRAM:WRF/CHEM V3.6 MODEL
 *                                                                   *
 *    PLEASE REPORT ANY BUGS TO WRF/CHEM HELP at                     *
 *                                                                   *
 *              wrfchemhelp.gsd@noaa.gov                             *
 *                                                                   *
 *********************************************************************
 WARNING: dust option 1 currently works only with the GOCART aerosol option.
 WARNING: sea salt option 1 currently works only with the GOCART aerosol option.
  *************************************
  Nesting domain
  ids,ide,jds,jde  1 217 1 388
  ims,ime,jms,jme  -4 33 -4 21
  ips,ipe,jps,jpe  1 22 1 10
  INTERMEDIATE domain
  ids,ide,jds,jde  225 302 83 217
  ims,ime,jms,jme  220 243 78 97
  ips,ipe,jps,jpe  223 233 81 87
  *************************************
 d02 2016-02-05_12:00:00  alloc_space_field: domain  4 ,  100122776  bytes allocated
 d02 2016-02-05_12:00:00 *** Initializing nest domain # 4 from an input file. ***
 d02 2016-02-05_12:00:00 med_initialdata_input: calling input_input
Timing for processing wrfinput file (stream 0) for domain        4:    6.30872 elapsed seconds
 INPUT LandUse = "USGS"
  LANDUSE TYPE = "USGS" FOUND 33  CATEGORIES 2  SEASONS WATER CATEGORY =  16  SNOW CATEGORY =  24
 INITIALIZE THREE Noah LSM RELATED TABLES
  LANDUSE TYPE = USGS FOUND 27  CATEGORIES
  INPUT SOIL TEXTURE CLASSIFICATION = STAS
  SOIL TEXTURE CLASSIFICATION = STAS FOUND 19  CATEGORIES
 *********************************************************************
 *             PROGRAM:WRF/CHEM V3.6 MODEL
 *                                                                   *
 *    PLEASE REPORT ANY BUGS TO WRF/CHEM HELP at                     *
 *                                                                   *
 *              wrfchemhelp.gsd@noaa.gov                             *
 *                                                                   *
 *********************************************************************
 WARNING: dust option 1 currently works only with the GOCART aerosol option.
 WARNING: sea salt option 1 currently works only with the GOCART aerosol option.
 INPUT LandUse = "USGS"
  LANDUSE TYPE = "USGS" FOUND 33  CATEGORIES 2  SEASONS WATER CATEGORY =  16  SNOW CATEGORY =  24
 INITIALIZE THREE Noah LSM RELATED TABLES
  LANDUSE TYPE = USGS FOUND 27  CATEGORIES
  INPUT SOIL TEXTURE CLASSIFICATION = STAS
  SOIL TEXTURE CLASSIFICATION = STAS FOUND 19  CATEGORIES
 *********************************************************************
 *             PROGRAM:WRF/CHEM V3.6 MODEL
 *                                                                   *
 *    PLEASE REPORT ANY BUGS TO WRF/CHEM HELP at                     *
 *                                                                   *
 *              wrfchemhelp.gsd@noaa.gov                             *
 *                                                                   *
 *********************************************************************
 WARNING: dust option 1 currently works only with the GOCART aerosol option.
 WARNING: sea salt option 1 currently works only with the GOCART aerosol option.
 INPUT LandUse = "USGS"
  LANDUSE TYPE = "USGS" FOUND 33  CATEGORIES 2  SEASONS WATER CATEGORY =  16  SNOW CATEGORY =  24
 INITIALIZE THREE Noah LSM RELATED TABLES
  LANDUSE TYPE = USGS FOUND 27  CATEGORIES
  INPUT SOIL TEXTURE CLASSIFICATION = STAS
  SOIL TEXTURE CLASSIFICATION = STAS FOUND 19  CATEGORIES
 *********************************************************************
 *             PROGRAM:WRF/CHEM V3.6 MODEL
 *                                                                   *
 *    PLEASE REPORT ANY BUGS TO WRF/CHEM HELP at                     *
 *                                                                   *
 *              wrfchemhelp.gsd@noaa.gov                             *
 *                                                                   *
 *********************************************************************
 WARNING: dust option 1 currently works only with the GOCART aerosol option.
 WARNING: sea salt option 1 currently works only with the GOCART aerosol option.
Timing for Writing wrfout_d02_2016-02-05_12:00:00 for domain        2:    2.67557 elapsed seconds
  mediation_integrate: med_read_wrf_chem_emissions: Open file wrfchemi_12z_d02
  HOURLY EMISSIONS UPDATE TIME         .0        .0
 mediation_integrate: med_read_wrf_chem_emissions: Read emissions for time 2016-02-05_12:00:00
 **WARNING** Time in input file not being checked **WARNING**
  Tile Strategy is not specified. Assuming 1D-Y
 WRF TILE   1 IS      1 IE     36 JS      1 JE      7
 WRF NUMBER OF TILES =   1
  photolysis_driver: called for domain  2
Timing for Writing wrfout_d03_2016-02-05_12:00:00 for domain        3:    2.43248 elapsed seconds
  mediation_integrate: med_read_wrf_chem_emissions: Open file wrfchemi_12z_d03
  HOURLY EMISSIONS UPDATE TIME         .0        .0
 mediation_integrate: med_read_wrf_chem_emissions: Read emissions for time 2016-02-05_12:00:00
 **WARNING** Time in input file not being checked **WARNING**
  Tile Strategy is not specified. Assuming 1D-Y
 WRF TILE   1 IS      1 IE     31 JS      1 JE      6
 WRF NUMBER OF TILES =   1
  photolysis_driver: called for domain  3
Timing for main: time 2016-02-05_12:00:13 on domain   3:    6.37683 elapsed seconds
Timing for main: time 2016-02-05_12:00:26 on domain   3:     .28679 elapsed seconds
Timing for main: time 2016-02-05_12:00:40 on domain   3:     .08293 elapsed seconds
Timing for Writing wrfout_d04_2016-02-05_12:00:00 for domain        4:    2.57211 elapsed seconds
  mediation_integrate: med_read_wrf_chem_emissions: Open file wrfchemi_12z_d04
  HOURLY EMISSIONS UPDATE TIME         .0        .0
 mediation_integrate: med_read_wrf_chem_emissions: Read emissions for time 2016-02-05_12:00:00
 **WARNING** Time in input file not being checked **WARNING**
  Tile Strategy is not specified. Assuming 1D-Y
 WRF TILE   1 IS      1 IE     22 JS      1 JE     10
 WRF NUMBER OF TILES =   1
  photolysis_driver: called for domain  4
Timing for main: time 2016-02-05_12:00:20 on domain   4:    6.93567 elapsed seconds
Timing for main: time 2016-02-05_12:00:40 on domain   4:     .62478 elapsed seconds
Timing for main: time 2016-02-05_12:00:40 on domain   2:   35.21363 elapsed seconds
Timing for main: time 2016-02-05_12:00:53 on domain   3:     .09748 elapsed seconds
Timing for main: time 2016-02-05_12:01:06 on domain   3:     .09255 elapsed seconds
Timing for main: time 2016-02-05_12:01:20 on domain   3:     .09460 elapsed seconds
Timing for main: time 2016-02-05_12:01:00 on domain   4:     .09861 elapsed seconds
Timing for main: time 2016-02-05_12:01:20 on domain   4:     .09946 elapsed seconds
Timing for main: time 2016-02-05_12:01:20 on domain   2:     .89729 elapsed seconds
Timing for main: time 2016-02-05_12:01:33 on domain   3:     .10372 elapsed seconds
Timing for main: time 2016-02-05_12:01:46 on domain   3:     .08703 elapsed seconds
Timing for main: time 2016-02-05_12:02:00 on domain   3:     .08651 elapsed seconds
Timing for main: time 2016-02-05_12:01:40 on domain   4:     .09675 elapsed seconds
Timing for main: time 2016-02-05_12:02:00 on domain   4:     .09249 elapsed seconds
Timing for main: time 2016-02-05_12:02:00 on domain   2:    2.12652 elapsed seconds
Timing for main: time 2016-02-05_12:02:00 on domain   1:   54.99900 elapsed seconds
Timing for main: time 2016-02-05_12:02:13 on domain   3:     .09858 elapsed seconds
Timing for main: time 2016-02-05_12:02:26 on domain   3:     .09081 elapsed seconds
Timing for main: time 2016-02-05_12:02:40 on domain   3:     .09250 elapsed seconds
Timing for main: time 2016-02-05_12:02:20 on domain   4:     .10222 elapsed seconds
Timing for main: time 2016-02-05_12:02:40 on domain   4:     .10124 elapsed seconds
Timing for main: time 2016-02-05_12:02:40 on domain   2:     .91991 elapsed seconds
Timing for main: time 2016-02-05_12:02:53 on domain   3:     .09737 elapsed seconds
Timing for main: time 2016-02-05_12:03:06 on domain   3:     .08468 elapsed seconds
Timing for main: time 2016-02-05_12:03:20 on domain   3:     .08275 elapsed seconds
Timing for main: time 2016-02-05_12:03:00 on domain   4:     .10036 elapsed seconds
Timing for main: time 2016-02-05_12:03:20 on domain   4:     .09578 elapsed seconds
Timing for main: time 2016-02-05_12:03:20 on domain   2:    1.88822 elapsed seconds
Timing for main: time 2016-02-05_12:03:33 on domain   3:     .10221 elapsed seconds
Timing for main: time 2016-02-05_12:03:46 on domain   3:     .12398 elapsed seconds
Timing for main: time 2016-02-05_12:04:00 on domain   3:     .11137 elapsed seconds
Timing for main: time 2016-02-05_12:03:40 on domain   4:     .09868 elapsed seconds
Timing for main: time 2016-02-05_12:04:00 on domain   4:     .10419 elapsed seconds
Timing for main: time 2016-02-05_12:04:00 on domain   2:     .99058 elapsed seconds
Timing for main: time 2016-02-05_12:04:00 on domain   1:    4.36655 elapsed seconds
Timing for main: time 2016-02-05_12:04:13 on domain   3:     .10176 elapsed seconds
Timing for main: time 2016-02-05_12:04:26 on domain   3:     .08941 elapsed seconds
Timing for main: time 2016-02-05_12:04:40 on domain   3:     .09401 elapsed seconds
Timing for main: time 2016-02-05_12:04:20 on domain   4:     .09857 elapsed seconds
Timing for main: time 2016-02-05_12:04:40 on domain   4:     .10016 elapsed seconds
Timing for main: time 2016-02-05_12:04:40 on domain   2:     .91768 elapsed seconds
Timing for main: time 2016-02-05_12:04:53 on domain   3:     .09774 elapsed seconds
Timing for main: time 2016-02-05_12:05:06 on domain   3:     .08632 elapsed seconds
Timing for main: time 2016-02-05_12:05:20 on domain   3:     .08312 elapsed seconds
Timing for main: time 2016-02-05_12:05:00 on domain   4:     .10150 elapsed seconds
Timing for main: time 2016-02-05_12:05:20 on domain   4:     .09640 elapsed seconds
Timing for main: time 2016-02-05_12:05:20 on domain   2:     .95265 elapsed seconds
Timing for main: time 2016-02-05_12:05:33 on domain   3:     .09770 elapsed seconds
Timing for main: time 2016-02-05_12:05:46 on domain   3:     .08953 elapsed seconds
Timing for main: time 2016-02-05_12:06:00 on domain   3:     .08695 elapsed seconds
Timing for main: time 2016-02-05_12:05:40 on domain   4:     .09763 elapsed seconds
Timing for main: time 2016-02-05_12:06:00 on domain   4:     .09468 elapsed seconds
Timing for main: time 2016-02-05_12:06:00 on domain   2:     .89399 elapsed seconds
Timing for main: time 2016-02-05_12:06:00 on domain   1:    3.00459 elapsed seconds
Timing for main: time 2016-02-05_12:06:13 on domain   3:     .09651 elapsed seconds
Timing for main: time 2016-02-05_12:06:26 on domain   3:     .08751 elapsed seconds
Timing for main: time 2016-02-05_12:06:40 on domain   3:     .08688 elapsed seconds
Timing for main: time 2016-02-05_12:06:20 on domain   4:     .09676 elapsed seconds
Timing for main: time 2016-02-05_12:06:40 on domain   4:     .09488 elapsed seconds
Timing for main: time 2016-02-05_12:06:40 on domain   2:     .90342 elapsed seconds
Timing for main: time 2016-02-05_12:06:53 on domain   3:     .09766 elapsed seconds
Timing for main: time 2016-02-05_12:07:06 on domain   3:     .08738 elapsed seconds
Timing for main: time 2016-02-05_12:07:20 on domain   3:     .08698 elapsed seconds
Timing for main: time 2016-02-05_12:07:00 on domain   4:     .09871 elapsed seconds
Timing for main: time 2016-02-05_12:07:20 on domain   4:     .09545 elapsed seconds
Timing for main: time 2016-02-05_12:07:20 on domain   2:     .89183 elapsed seconds
Timing for main: time 2016-02-05_12:07:33 on domain   3:     .09747 elapsed seconds
Timing for main: time 2016-02-05_12:07:46 on domain   3:     .08735 elapsed seconds
Timing for main: time 2016-02-05_12:08:00 on domain   3:     .08743 elapsed seconds
Timing for main: time 2016-02-05_12:07:40 on domain   4:     .09741 elapsed seconds
Timing for main: time 2016-02-05_12:08:00 on domain   4:     .09691 elapsed seconds
Timing for main: time 2016-02-05_12:08:00 on domain   2:     .89202 elapsed seconds
Timing for main: time 2016-02-05_12:08:00 on domain   1:    2.91907 elapsed seconds
Timing for main: time 2016-02-05_12:08:13 on domain   3:     .09788 elapsed seconds
Timing for main: time 2016-02-05_12:08:26 on domain   3:     .08835 elapsed seconds
Timing for main: time 2016-02-05_12:08:40 on domain   3:     .08717 elapsed seconds
Timing for main: time 2016-02-05_12:08:20 on domain   4:     .09718 elapsed seconds
Timing for main: time 2016-02-05_12:08:40 on domain   4:     .09530 elapsed seconds
Timing for main: time 2016-02-05_12:08:40 on domain   2:     .89763 elapsed seconds
Timing for main: time 2016-02-05_12:08:53 on domain   3:     .09744 elapsed seconds
Timing for main: time 2016-02-05_12:09:06 on domain   3:     .08881 elapsed seconds
Timing for main: time 2016-02-05_12:09:20 on domain   3:     .08891 elapsed seconds
Timing for main: time 2016-02-05_12:09:00 on domain   4:     .09780 elapsed seconds
Timing for main: time 2016-02-05_12:09:20 on domain   4:     .09695 elapsed seconds
Timing for main: time 2016-02-05_12:09:20 on domain   2:     .89668 elapsed seconds
Timing for main: time 2016-02-05_12:09:33 on domain   3:     .09751 elapsed seconds
Timing for main: time 2016-02-05_12:09:46 on domain   3:     .08664 elapsed seconds
Timing for main: time 2016-02-05_12:10:00 on domain   3:     .08871 elapsed seconds
Timing for main: time 2016-02-05_12:09:40 on domain   4:     .09749 elapsed seconds
Timing for main: time 2016-02-05_12:10:00 on domain   4:     .10420 elapsed seconds
Timing for main: time 2016-02-05_12:10:00 on domain   2:     .89505 elapsed seconds
Timing for main: time 2016-02-05_12:10:00 on domain   1:    2.94463 elapsed seconds
Timing for main: time 2016-02-05_12:10:13 on domain   3:     .10097 elapsed seconds
Timing for main: time 2016-02-05_12:10:26 on domain   3:     .08563 elapsed seconds
Timing for main: time 2016-02-05_12:10:40 on domain   3:     .08732 elapsed seconds
Timing for main: time 2016-02-05_12:10:20 on domain   4:     .10038 elapsed seconds
Timing for main: time 2016-02-05_12:10:40 on domain   4:     .09600 elapsed seconds
Timing for main: time 2016-02-05_12:10:40 on domain   2:     .90575 elapsed seconds
Timing for main: time 2016-02-05_12:10:53 on domain   3:     .09871 elapsed seconds
Timing for main: time 2016-02-05_12:11:06 on domain   3:     .11309 elapsed seconds
Timing for main: time 2016-02-05_12:11:20 on domain   3:     .12779 elapsed seconds
Timing for main: time 2016-02-05_12:11:00 on domain   4:     .09703 elapsed seconds
Timing for main: time 2016-02-05_12:11:20 on domain   4:     .09686 elapsed seconds
Timing for main: time 2016-02-05_12:11:20 on domain   2:     .98648 elapsed seconds
Timing for main: time 2016-02-05_12:11:33 on domain   3:     .09746 elapsed seconds
Timing for main: time 2016-02-05_12:11:46 on domain   3:     .08587 elapsed seconds
Timing for main: time 2016-02-05_12:12:00 on domain   3:     .08736 elapsed seconds
Timing for main: time 2016-02-05_12:11:40 on domain   4:     .09826 elapsed seconds
Timing for main: time 2016-02-05_12:12:00 on domain   4:     .09782 elapsed seconds
Timing for main: time 2016-02-05_12:12:00 on domain   2:     .89187 elapsed seconds
Timing for main: time 2016-02-05_12:12:00 on domain   1:    3.01994 elapsed seconds
Timing for main: time 2016-02-05_12:12:13 on domain   3:     .09745 elapsed seconds
Timing for main: time 2016-02-05_12:12:26 on domain   3:     .08635 elapsed seconds
Timing for main: time 2016-02-05_12:12:40 on domain   3:     .08683 elapsed seconds
Timing for main: time 2016-02-05_12:12:20 on domain   4:     .09855 elapsed seconds
Timing for main: time 2016-02-05_12:12:40 on domain   4:     .09624 elapsed seconds
Timing for main: time 2016-02-05_12:12:40 on domain   2:     .89682 elapsed seconds
Timing for main: time 2016-02-05_12:12:53 on domain   3:     .09725 elapsed seconds
Timing for main: time 2016-02-05_12:13:06 on domain   3:     .08600 elapsed seconds
Timing for main: time 2016-02-05_12:13:20 on domain   3:     .08732 elapsed seconds
Timing for main: time 2016-02-05_12:13:00 on domain   4:     .10544 elapsed seconds
Timing for main: time 2016-02-05_12:13:20 on domain   4:     .12273 elapsed seconds
Timing for main: time 2016-02-05_12:13:20 on domain   2:     .92373 elapsed seconds
Timing for main: time 2016-02-05_12:13:33 on domain   3:     .09745 elapsed seconds
Timing for main: time 2016-02-05_12:13:46 on domain   3:     .08620 elapsed seconds
Timing for main: time 2016-02-05_12:14:00 on domain   3:     .08744 elapsed seconds
Timing for main: time 2016-02-05_12:13:40 on domain   4:     .09821 elapsed seconds
Timing for main: time 2016-02-05_12:14:00 on domain   4:     .09672 elapsed seconds
Timing for main: time 2016-02-05_12:14:00 on domain   2:     .91133 elapsed seconds
Timing for main: time 2016-02-05_12:14:00 on domain   1:    2.96354 elapsed seconds
Timing for main: time 2016-02-05_12:14:13 on domain   3:     .10249 elapsed seconds
Timing for main: time 2016-02-05_12:14:26 on domain   3:     .11593 elapsed seconds
Timing for main: time 2016-02-05_12:14:40 on domain   3:     .10930 elapsed seconds
Timing for main: time 2016-02-05_12:14:20 on domain   4:     .10302 elapsed seconds
Timing for main: time 2016-02-05_12:14:40 on domain   4:     .09665 elapsed seconds
Timing for main: time 2016-02-05_12:14:40 on domain   2:     .95748 elapsed seconds
Timing for main: time 2016-02-05_12:14:53 on domain   3:     .09738 elapsed seconds
Timing for main: time 2016-02-05_12:15:06 on domain   3:     .08576 elapsed seconds
Timing for main: time 2016-02-05_12:15:20 on domain   3:     .09081 elapsed seconds
Timing for main: time 2016-02-05_12:15:00 on domain   4:     .10213 elapsed seconds
Timing for main: time 2016-02-05_12:15:20 on domain   4:     .09698 elapsed seconds
Timing for main: time 2016-02-05_12:15:20 on domain   2:     .89790 elapsed seconds
Timing for main: time 2016-02-05_12:15:33 on domain   3:     .09870 elapsed seconds
Timing for main: time 2016-02-05_12:15:46 on domain   3:     .08580 elapsed seconds
Timing for main: time 2016-02-05_12:16:00 on domain   3:     .08862 elapsed seconds
Timing for main: time 2016-02-05_12:15:40 on domain   4:     .09810 elapsed seconds
Timing for main: time 2016-02-05_12:16:00 on domain   4:     .09652 elapsed seconds
Timing for main: time 2016-02-05_12:16:00 on domain   2:     .89698 elapsed seconds
Timing for main: time 2016-02-05_12:16:00 on domain   1:    2.98431 elapsed seconds
Timing for main: time 2016-02-05_12:16:13 on domain   3:     .09810 elapsed seconds
Timing for main: time 2016-02-05_12:16:26 on domain   3:     .12399 elapsed seconds
Timing for main: time 2016-02-05_12:16:40 on domain   3:     .12553 elapsed seconds
Timing for main: time 2016-02-05_12:16:20 on domain   4:     .09752 elapsed seconds
Timing for main: time 2016-02-05_12:16:40 on domain   4:     .09829 elapsed seconds
Timing for main: time 2016-02-05_12:16:40 on domain   2:     .98928 elapsed seconds
Timing for main: time 2016-02-05_12:16:53 on domain   3:     .09706 elapsed seconds
Timing for main: time 2016-02-05_12:17:06 on domain   3:     .08659 elapsed seconds
Timing for main: time 2016-02-05_12:17:20 on domain   3:     .08691 elapsed seconds
Timing for main: time 2016-02-05_12:17:00 on domain   4:     .09960 elapsed seconds
Timing for main: time 2016-02-05_12:17:20 on domain   4:     .09489 elapsed seconds
Timing for main: time 2016-02-05_12:17:20 on domain   2:     .89003 elapsed seconds
Timing for main: time 2016-02-05_12:17:33 on domain   3:     .09719 elapsed seconds
Timing for main: time 2016-02-05_12:17:46 on domain   3:     .08923 elapsed seconds
Timing for main: time 2016-02-05_12:18:00 on domain   3:     .08671 elapsed seconds
Timing for main: time 2016-02-05_12:17:40 on domain   4:     .09791 elapsed seconds
Timing for main: time 2016-02-05_12:18:00 on domain   4:     .09681 elapsed seconds
Timing for main: time 2016-02-05_12:18:00 on domain   2:     .89271 elapsed seconds
Timing for main: time 2016-02-05_12:18:00 on domain   1:    3.00858 elapsed seconds
Timing for main: time 2016-02-05_12:18:13 on domain   3:     .09743 elapsed seconds
Timing for main: time 2016-02-05_12:18:26 on domain   3:     .08589 elapsed seconds
Timing for main: time 2016-02-05_12:18:40 on domain   3:     .08743 elapsed seconds
Timing for main: time 2016-02-05_12:18:20 on domain   4:     .09836 elapsed seconds
Timing for main: time 2016-02-05_12:18:40 on domain   4:     .09763 elapsed seconds
Timing for main: time 2016-02-05_12:18:40 on domain   2:     .89714 elapsed seconds
Timing for main: time 2016-02-05_12:18:53 on domain   3:     .09736 elapsed seconds
Timing for main: time 2016-02-05_12:19:06 on domain   3:     .08758 elapsed seconds
Timing for main: time 2016-02-05_12:19:20 on domain   3:     .08860 elapsed seconds
Timing for main: time 2016-02-05_12:19:00 on domain   4:     .09764 elapsed seconds
Timing for main: time 2016-02-05_12:19:20 on domain   4:     .09718 elapsed seconds
Timing for main: time 2016-02-05_12:19:20 on domain   2:     .89445 elapsed seconds
Timing for main: time 2016-02-05_12:19:33 on domain   3:     .09750 elapsed seconds
Timing for main: time 2016-02-05_12:19:46 on domain   3:     .08843 elapsed seconds
Timing for main: time 2016-02-05_12:20:00 on domain   3:     .10106 elapsed seconds
Timing for main: time 2016-02-05_12:19:40 on domain   4:     .09683 elapsed seconds
Timing for main: time 2016-02-05_12:20:00 on domain   4:     .09965 elapsed seconds
Timing for main: time 2016-02-05_12:20:00 on domain   2:     .91130 elapsed seconds
Timing for main: time 2016-02-05_12:20:00 on domain   1:    2.93478 elapsed seconds
Timing for main: time 2016-02-05_12:20:13 on domain   3:     .09763 elapsed seconds
Timing for main: time 2016-02-05_12:20:26 on domain   3:     .09055 elapsed seconds
Timing for main: time 2016-02-05_12:20:40 on domain   3:     .08322 elapsed seconds
Timing for main: time 2016-02-05_12:20:20 on domain   4:     .09804 elapsed seconds
Timing for main: time 2016-02-05_12:20:40 on domain   4:     .09808 elapsed seconds
Timing for main: time 2016-02-05_12:20:40 on domain   2:     .91475 elapsed seconds
Timing for main: time 2016-02-05_12:20:53 on domain   3:     .09786 elapsed seconds
Timing for main: time 2016-02-05_12:21:06 on domain   3:     .08697 elapsed seconds
Timing for main: time 2016-02-05_12:21:20 on domain   3:     .08724 elapsed seconds
Timing for main: time 2016-02-05_12:21:00 on domain   4:     .09771 elapsed seconds
Timing for main: time 2016-02-05_12:21:20 on domain   4:     .09486 elapsed seconds
Timing for main: time 2016-02-05_12:21:20 on domain   2:     .89480 elapsed seconds
Timing for main: time 2016-02-05_12:21:33 on domain   3:     .09734 elapsed seconds
Timing for main: time 2016-02-05_12:21:46 on domain   3:     .08791 elapsed seconds
Timing for main: time 2016-02-05_12:22:00 on domain   3:     .08724 elapsed seconds
Timing for main: time 2016-02-05_12:21:40 on domain   4:     .09869 elapsed seconds
Timing for main: time 2016-02-05_12:22:00 on domain   4:     .09521 elapsed seconds
Timing for main: time 2016-02-05_12:22:00 on domain   2:     .89171 elapsed seconds
Timing for main: time 2016-02-05_12:22:00 on domain   1:    2.93301 elapsed seconds
Timing for main: time 2016-02-05_12:22:13 on domain   3:     .09765 elapsed seconds
Timing for main: time 2016-02-05_12:22:26 on domain   3:     .08727 elapsed seconds
Timing for main: time 2016-02-05_12:22:40 on domain   3:     .08768 elapsed seconds
Timing for main: time 2016-02-05_12:22:20 on domain   4:     .09849 elapsed seconds
Timing for main: time 2016-02-05_12:22:40 on domain   4:     .09917 elapsed seconds
Timing for main: time 2016-02-05_12:22:40 on domain   2:     .90018 elapsed seconds
Timing for main: time 2016-02-05_12:22:53 on domain   3:     .09730 elapsed seconds
Timing for main: time 2016-02-05_12:23:06 on domain   3:     .08752 elapsed seconds
Timing for main: time 2016-02-05_12:23:20 on domain   3:     .08766 elapsed seconds
Timing for main: time 2016-02-05_12:23:00 on domain   4:     .09847 elapsed seconds
Timing for main: time 2016-02-05_12:23:20 on domain   4:     .09542 elapsed seconds
Timing for main: time 2016-02-05_12:23:20 on domain   2:     .92198 elapsed seconds
Timing for main: time 2016-02-05_12:23:33 on domain   3:     .09758 elapsed seconds
Timing for main: time 2016-02-05_12:23:46 on domain   3:     .09227 elapsed seconds
Timing for main: time 2016-02-05_12:24:00 on domain   3:     .08683 elapsed seconds
Timing for main: time 2016-02-05_12:23:40 on domain   4:     .09848 elapsed seconds
Timing for main: time 2016-02-05_12:24:00 on domain   4:     .09677 elapsed seconds
Timing for main: time 2016-02-05_12:24:00 on domain   2:     .89643 elapsed seconds
Timing for main: time 2016-02-05_12:24:00 on domain   1:    2.95494 elapsed seconds
Timing for main: time 2016-02-05_12:24:13 on domain   3:     .09714 elapsed seconds
Timing for main: time 2016-02-05_12:24:26 on domain   3:     .08751 elapsed seconds
Timing for main: time 2016-02-05_12:24:40 on domain   3:     .08834 elapsed seconds
Timing for main: time 2016-02-05_12:24:20 on domain   4:     .09791 elapsed seconds
Timing for main: time 2016-02-05_12:24:40 on domain   4:     .09515 elapsed seconds
Timing for main: time 2016-02-05_12:24:40 on domain   2:     .89342 elapsed seconds
Timing for main: time 2016-02-05_12:24:53 on domain   3:     .09781 elapsed seconds
Timing for main: time 2016-02-05_12:25:06 on domain   3:     .08664 elapsed seconds
Timing for main: time 2016-02-05_12:25:20 on domain   3:     .08770 elapsed seconds
Timing for main: time 2016-02-05_12:25:00 on domain   4:     .10190 elapsed seconds
Timing for main: time 2016-02-05_12:25:20 on domain   4:     .09715 elapsed seconds
Timing for main: time 2016-02-05_12:25:20 on domain   2:     .92896 elapsed seconds
Timing for main: time 2016-02-05_12:25:33 on domain   3:     .10014 elapsed seconds
Timing for main: time 2016-02-05_12:25:46 on domain   3:     .08633 elapsed seconds
Timing for main: time 2016-02-05_12:26:00 on domain   3:     .08846 elapsed seconds
Timing for main: time 2016-02-05_12:25:40 on domain   4:     .10372 elapsed seconds
Timing for main: time 2016-02-05_12:26:00 on domain   4:     .12081 elapsed seconds
Timing for main: time 2016-02-05_12:26:00 on domain   2:     .92017 elapsed seconds
Timing for main: time 2016-02-05_12:26:00 on domain   1:    3.00517 elapsed seconds
Timing for main: time 2016-02-05_12:26:13 on domain   3:     .09733 elapsed seconds
Timing for main: time 2016-02-05_12:26:26 on domain   3:     .08603 elapsed seconds
Timing for main: time 2016-02-05_12:26:40 on domain   3:     .08940 elapsed seconds
Timing for main: time 2016-02-05_12:26:20 on domain   4:     .09810 elapsed seconds
Timing for main: time 2016-02-05_12:26:40 on domain   4:     .09695 elapsed seconds
Timing for main: time 2016-02-05_12:26:40 on domain   2:     .91461 elapsed seconds
Timing for main: time 2016-02-05_12:26:53 on domain   3:     .09743 elapsed seconds
Timing for main: time 2016-02-05_12:27:06 on domain   3:     .08567 elapsed seconds
Timing for main: time 2016-02-05_12:27:20 on domain   3:     .08854 elapsed seconds
Timing for main: time 2016-02-05_12:27:00 on domain   4:     .09708 elapsed seconds
Timing for main: time 2016-02-05_12:27:20 on domain   4:     .09687 elapsed seconds
Timing for main: time 2016-02-05_12:27:20 on domain   2:     .89859 elapsed seconds
Timing for main: time 2016-02-05_12:27:33 on domain   3:     .09687 elapsed seconds
Timing for main: time 2016-02-05_12:27:46 on domain   3:     .08623 elapsed seconds
Timing for main: time 2016-02-05_12:28:00 on domain   3:     .08762 elapsed seconds
Timing for main: time 2016-02-05_12:27:40 on domain   4:     .09802 elapsed seconds
Timing for main: time 2016-02-05_12:28:00 on domain   4:     .09689 elapsed seconds
Timing for main: time 2016-02-05_12:28:00 on domain   2:     .89094 elapsed seconds
Timing for main: time 2016-02-05_12:28:00 on domain   1:    2.97933 elapsed seconds
  photolysis_driver: called for domain  1
Timing for main: time 2016-02-05_12:28:13 on domain   3:     .09717 elapsed seconds
Timing for main: time 2016-02-05_12:28:26 on domain   3:     .08762 elapsed seconds
Timing for main: time 2016-02-05_12:28:40 on domain   3:     .08731 elapsed seconds
Timing for main: time 2016-02-05_12:28:20 on domain   4:     .09805 elapsed seconds
Timing for main: time 2016-02-05_12:28:40 on domain   4:     .09707 elapsed seconds
Timing for main: time 2016-02-05_12:28:40 on domain   2:     .90059 elapsed seconds
Timing for main: time 2016-02-05_12:28:53 on domain   3:     .09840 elapsed seconds
Timing for main: time 2016-02-05_12:29:06 on domain   3:     .08750 elapsed seconds
Timing for main: time 2016-02-05_12:29:20 on domain   3:     .08880 elapsed seconds
Timing for main: time 2016-02-05_12:29:00 on domain   4:     .09775 elapsed seconds
Timing for main: time 2016-02-05_12:29:20 on domain   4:     .09753 elapsed seconds
Timing for main: time 2016-02-05_12:29:20 on domain   2:     .89206 elapsed seconds
  photolysis_driver: called for domain  2
Timing for main: time 2016-02-05_12:29:33 on domain   3:     .09757 elapsed seconds
Timing for main: time 2016-02-05_12:29:46 on domain   3:     .08791 elapsed seconds
  photolysis_driver: called for domain  3
Timing for main: time 2016-02-05_12:30:00 on domain   3:     .43793 elapsed seconds
Timing for main: time 2016-02-05_12:29:40 on domain   4:     .09793 elapsed seconds
  photolysis_driver: called for domain  4
Timing for main: time 2016-02-05_12:30:00 on domain   4:     .52867 elapsed seconds
Timing for main: time 2016-02-05_12:30:00 on domain   2:    2.14378 elapsed seconds
Timing for main: time 2016-02-05_12:30:00 on domain   1:    4.48104 elapsed seconds
Timing for main: time 2016-02-05_12:30:13 on domain   3:     .16473 elapsed seconds
Timing for main: time 2016-02-05_12:30:26 on domain   3:     .08503 elapsed seconds
Timing for main: time 2016-02-05_12:30:40 on domain   3:     .09004 elapsed seconds
Timing for main: time 2016-02-05_12:30:20 on domain   4:     .17865 elapsed seconds
Timing for main: time 2016-02-05_12:30:40 on domain   4:     .09494 elapsed seconds
Timing for main: time 2016-02-05_12:30:40 on domain   2:    1.13908 elapsed seconds
Timing for main: time 2016-02-05_12:30:53 on domain   3:     .09729 elapsed seconds
Timing for main: time 2016-02-05_12:31:06 on domain   3:     .08762 elapsed seconds
Timing for main: time 2016-02-05_12:31:20 on domain   3:     .08672 elapsed seconds
Timing for main: time 2016-02-05_12:31:00 on domain   4:     .09779 elapsed seconds
Timing for main: time 2016-02-05_12:31:20 on domain   4:     .09511 elapsed seconds
Timing for main: time 2016-02-05_12:31:20 on domain   2:     .88885 elapsed seconds
Timing for main: time 2016-02-05_12:31:33 on domain   3:     .09657 elapsed seconds
Timing for main: time 2016-02-05_12:31:46 on domain   3:     .08726 elapsed seconds
Timing for main: time 2016-02-05_12:32:00 on domain   3:     .08654 elapsed seconds
Timing for main: time 2016-02-05_12:31:40 on domain   4:     .09754 elapsed seconds
Timing for main: time 2016-02-05_12:32:00 on domain   4:     .09505 elapsed seconds
Timing for main: time 2016-02-05_12:32:00 on domain   2:     .89635 elapsed seconds
Timing for main: time 2016-02-05_12:32:00 on domain   1:    3.20911 elapsed seconds
Timing for main: time 2016-02-05_12:32:13 on domain   3:     .09662 elapsed seconds
Timing for main: time 2016-02-05_12:32:26 on domain   3:     .08685 elapsed seconds
Timing for main: time 2016-02-05_12:32:40 on domain   3:     .08680 elapsed seconds
Timing for main: time 2016-02-05_12:32:20 on domain   4:     .09762 elapsed seconds
Timing for main: time 2016-02-05_12:32:40 on domain   4:     .09572 elapsed seconds
Timing for main: time 2016-02-05_12:32:40 on domain   2:     .89514 elapsed seconds
Timing for main: time 2016-02-05_12:32:53 on domain   3:     .09661 elapsed seconds
Timing for main: time 2016-02-05_12:33:06 on domain   3:     .08732 elapsed seconds
Timing for main: time 2016-02-05_12:33:20 on domain   3:     .08670 elapsed seconds
Timing for main: time 2016-02-05_12:33:00 on domain   4:     .09695 elapsed seconds
Timing for main: time 2016-02-05_12:33:20 on domain   4:     .09673 elapsed seconds
Timing for main: time 2016-02-05_12:33:20 on domain   2:     .89141 elapsed seconds
Timing for main: time 2016-02-05_12:33:33 on domain   3:     .09833 elapsed seconds
Timing for main: time 2016-02-05_12:33:46 on domain   3:     .08759 elapsed seconds
Timing for main: time 2016-02-05_12:34:00 on domain   3:     .12702 elapsed seconds
Timing for main: time 2016-02-05_12:33:40 on domain   4:     .09676 elapsed seconds
Timing for main: time 2016-02-05_12:34:00 on domain   4:     .09631 elapsed seconds
Timing for main: time 2016-02-05_12:34:00 on domain   2:    1.00041 elapsed seconds
Timing for main: time 2016-02-05_12:34:00 on domain   1:    3.04155 elapsed seconds
Timing for main: time 2016-02-05_12:34:13 on domain   3:     .10160 elapsed seconds
Timing for main: time 2016-02-05_12:34:26 on domain   3:     .09054 elapsed seconds
Timing for main: time 2016-02-05_12:34:40 on domain   3:     .08745 elapsed seconds
Timing for main: time 2016-02-05_12:34:20 on domain   4:     .09880 elapsed seconds
Timing for main: time 2016-02-05_12:34:40 on domain   4:     .09525 elapsed seconds
Timing for main: time 2016-02-05_12:34:40 on domain   2:     .94602 elapsed seconds
Timing for main: time 2016-02-05_12:34:53 on domain   3:     .10019 elapsed seconds
Timing for main: time 2016-02-05_12:35:06 on domain   3:     .12799 elapsed seconds
Timing for main: time 2016-02-05_12:35:20 on domain   3:     .12585 elapsed seconds
Timing for main: time 2016-02-05_12:35:00 on domain   4:     .10069 elapsed seconds
Timing for main: time 2016-02-05_12:35:20 on domain   4:     .09726 elapsed seconds
Timing for main: time 2016-02-05_12:35:20 on domain   2:     .97525 elapsed seconds
Timing for main: time 2016-02-05_12:35:33 on domain   3:     .09693 elapsed seconds
Timing for main: time 2016-02-05_12:35:46 on domain   3:     .09079 elapsed seconds
Timing for main: time 2016-02-05_12:36:00 on domain   3:     .08822 elapsed seconds
Timing for main: time 2016-02-05_12:35:40 on domain   4:     .09772 elapsed seconds
Timing for main: time 2016-02-05_12:36:00 on domain   4:     .09655 elapsed seconds
Timing for main: time 2016-02-05_12:36:00 on domain   2:     .89315 elapsed seconds
Timing for main: time 2016-02-05_12:36:00 on domain   1:    3.04405 elapsed seconds
Timing for main: time 2016-02-05_12:36:13 on domain   3:     .09676 elapsed seconds
Timing for main: time 2016-02-05_12:36:26 on domain   3:     .08726 elapsed seconds
Timing for main: time 2016-02-05_12:36:40 on domain   3:     .08668 elapsed seconds
Timing for main: time 2016-02-05_12:36:20 on domain   4:     .09790 elapsed seconds
Timing for main: time 2016-02-05_12:36:40 on domain   4:     .09656 elapsed seconds
Timing for main: time 2016-02-05_12:36:40 on domain   2:     .89640 elapsed seconds
Timing for main: time 2016-02-05_12:36:53 on domain   3:     .09714 elapsed seconds
Timing for main: time 2016-02-05_12:37:06 on domain   3:     .08654 elapsed seconds
Timing for main: time 2016-02-05_12:37:20 on domain   3:     .08737 elapsed seconds
Timing for main: time 2016-02-05_12:37:00 on domain   4:     .09767 elapsed seconds
Timing for main: time 2016-02-05_12:37:20 on domain   4:     .09690 elapsed seconds
Timing for main: time 2016-02-05_12:37:20 on domain   2:     .89037 elapsed seconds
Timing for main: time 2016-02-05_12:37:33 on domain   3:     .10673 elapsed seconds
Timing for main: time 2016-02-05_12:37:46 on domain   3:     .12206 elapsed seconds
Timing for main: time 2016-02-05_12:38:00 on domain   3:     .12049 elapsed seconds
Timing for main: time 2016-02-05_12:37:40 on domain   4:     .09708 elapsed seconds
Timing for main: time 2016-02-05_12:38:00 on domain   4:     .09653 elapsed seconds
Timing for main: time 2016-02-05_12:38:00 on domain   2:     .96717 elapsed seconds
Timing for main: time 2016-02-05_12:38:00 on domain   1:    2.98518 elapsed seconds
Timing for main: time 2016-02-05_12:38:13 on domain   3:     .09758 elapsed seconds
Timing for main: time 2016-02-05_12:38:26 on domain   3:     .08521 elapsed seconds
Timing for main: time 2016-02-05_12:38:40 on domain   3:     .08783 elapsed seconds
Timing for main: time 2016-02-05_12:38:20 on domain   4:     .09775 elapsed seconds
Timing for main: time 2016-02-05_12:38:40 on domain   4:     .09664 elapsed seconds
Timing for main: time 2016-02-05_12:38:40 on domain   2:     .89400 elapsed seconds
Timing for main: time 2016-02-05_12:38:53 on domain   3:     .09714 elapsed seconds
Timing for main: time 2016-02-05_12:39:06 on domain   3:     .08472 elapsed seconds
Timing for main: time 2016-02-05_12:39:20 on domain   3:     .08715 elapsed seconds
Timing for main: time 2016-02-05_12:39:00 on domain   4:     .09775 elapsed seconds
Timing for main: time 2016-02-05_12:39:20 on domain   4:     .09676 elapsed seconds
Timing for main: time 2016-02-05_12:39:20 on domain   2:     .88736 elapsed seconds
Timing for main: time 2016-02-05_12:39:33 on domain   3:     .09695 elapsed seconds
Timing for main: time 2016-02-05_12:39:46 on domain   3:     .08584 elapsed seconds
Timing for main: time 2016-02-05_12:40:00 on domain   3:     .08717 elapsed seconds
Timing for main: time 2016-02-05_12:39:40 on domain   4:     .09783 elapsed seconds
Timing for main: time 2016-02-05_12:40:00 on domain   4:     .10358 elapsed seconds
Timing for main: time 2016-02-05_12:40:00 on domain   2:     .89969 elapsed seconds
Timing for main: time 2016-02-05_12:40:00 on domain   1:    2.91225 elapsed seconds
Timing for main: time 2016-02-05_12:40:13 on domain   3:     .09692 elapsed seconds
Timing for main: time 2016-02-05_12:40:26 on domain   3:     .08529 elapsed seconds
Timing for main: time 2016-02-05_12:40:40 on domain   3:     .08829 elapsed seconds
Timing for main: time 2016-02-05_12:40:20 on domain   4:     .09744 elapsed seconds
Timing for main: time 2016-02-05_12:40:40 on domain   4:     .09719 elapsed seconds
Timing for main: time 2016-02-05_12:40:40 on domain   2:     .89474 elapsed seconds
Timing for main: time 2016-02-05_12:40:53 on domain   3:     .10060 elapsed seconds
Timing for main: time 2016-02-05_12:41:06 on domain   3:     .08770 elapsed seconds
Timing for main: time 2016-02-05_12:41:20 on domain   3:     .08983 elapsed seconds
Timing for main: time 2016-02-05_12:41:00 on domain   4:     .09786 elapsed seconds
Timing for main: time 2016-02-05_12:41:20 on domain   4:     .09709 elapsed seconds
Timing for main: time 2016-02-05_12:41:20 on domain   2:     .89816 elapsed seconds
Timing for main: time 2016-02-05_12:41:33 on domain   3:     .09660 elapsed seconds
Timing for main: time 2016-02-05_12:41:46 on domain   3:     .08302 elapsed seconds
Timing for main: time 2016-02-05_12:42:00 on domain   3:     .08553 elapsed seconds
Timing for main: time 2016-02-05_12:41:40 on domain   4:     .09775 elapsed seconds
Timing for main: time 2016-02-05_12:42:00 on domain   4:     .09663 elapsed seconds
Timing for main: time 2016-02-05_12:42:00 on domain   2:     .90207 elapsed seconds
Timing for main: time 2016-02-05_12:42:00 on domain   1:    2.92930 elapsed seconds
Timing for main: time 2016-02-05_12:42:13 on domain   3:     .09711 elapsed seconds
Timing for main: time 2016-02-05_12:42:26 on domain   3:     .08527 elapsed seconds
Timing for main: time 2016-02-05_12:42:40 on domain   3:     .08909 elapsed seconds
Timing for main: time 2016-02-05_12:42:20 on domain   4:     .09768 elapsed seconds
Timing for main: time 2016-02-05_12:42:40 on domain   4:     .09968 elapsed seconds
Timing for main: time 2016-02-05_12:42:40 on domain   2:     .90961 elapsed seconds
Timing for main: time 2016-02-05_12:42:53 on domain   3:     .09674 elapsed seconds
Timing for main: time 2016-02-05_12:43:06 on domain   3:     .08750 elapsed seconds
Timing for main: time 2016-02-05_12:43:20 on domain   3:     .08655 elapsed seconds
Timing for main: time 2016-02-05_12:43:00 on domain   4:     .09763 elapsed seconds
Timing for main: time 2016-02-05_12:43:20 on domain   4:     .09927 elapsed seconds
Timing for main: time 2016-02-05_12:43:20 on domain   2:     .89118 elapsed seconds
Timing for main: time 2016-02-05_12:43:33 on domain   3:     .09693 elapsed seconds
Timing for main: time 2016-02-05_12:43:46 on domain   3:     .08706 elapsed seconds
Timing for main: time 2016-02-05_12:44:00 on domain   3:     .08605 elapsed seconds
Timing for main: time 2016-02-05_12:43:40 on domain   4:     .09755 elapsed seconds
Timing for main: time 2016-02-05_12:44:00 on domain   4:     .09449 elapsed seconds
Timing for main: time 2016-02-05_12:44:00 on domain   2:     .89094 elapsed seconds
Timing for main: time 2016-02-05_12:44:00 on domain   1:    2.92420 elapsed seconds
Timing for main: time 2016-02-05_12:44:13 on domain   3:     .09675 elapsed seconds
Timing for main: time 2016-02-05_12:44:26 on domain   3:     .08843 elapsed seconds
Timing for main: time 2016-02-05_12:44:40 on domain   3:     .09323 elapsed seconds
Timing for main: time 2016-02-05_12:44:20 on domain   4:     .09845 elapsed seconds
Timing for main: time 2016-02-05_12:44:40 on domain   4:     .09825 elapsed seconds
Timing for main: time 2016-02-05_12:44:40 on domain   2:     .91079 elapsed seconds
Timing for main: time 2016-02-05_12:44:53 on domain   3:     .09693 elapsed seconds
Timing for main: time 2016-02-05_12:45:06 on domain   3:     .08683 elapsed seconds
Timing for main: time 2016-02-05_12:45:20 on domain   3:     .08703 elapsed seconds
Timing for main: time 2016-02-05_12:45:00 on domain   4:     .10205 elapsed seconds
Timing for main: time 2016-02-05_12:45:20 on domain   4:     .09562 elapsed seconds
Timing for main: time 2016-02-05_12:45:20 on domain   2:     .89269 elapsed seconds
Timing for main: time 2016-02-05_12:45:33 on domain   3:     .09762 elapsed seconds
Timing for main: time 2016-02-05_12:45:46 on domain   3:     .08871 elapsed seconds
Timing for main: time 2016-02-05_12:46:00 on domain   3:     .08963 elapsed seconds
Timing for main: time 2016-02-05_12:45:40 on domain   4:     .09909 elapsed seconds
Timing for main: time 2016-02-05_12:46:00 on domain   4:     .09408 elapsed seconds
Timing for main: time 2016-02-05_12:46:00 on domain   2:     .89287 elapsed seconds
Timing for main: time 2016-02-05_12:46:00 on domain   1:    2.92819 elapsed seconds
Timing for main: time 2016-02-05_12:46:13 on domain   3:     .09796 elapsed seconds
Timing for main: time 2016-02-05_12:46:26 on domain   3:     .08635 elapsed seconds
Timing for main: time 2016-02-05_12:46:40 on domain   3:     .08667 elapsed seconds
Timing for main: time 2016-02-05_12:46:20 on domain   4:     .09799 elapsed seconds
Timing for main: time 2016-02-05_12:46:40 on domain   4:     .12232 elapsed seconds
Timing for main: time 2016-02-05_12:46:40 on domain   2:     .92155 elapsed seconds
Timing for main: time 2016-02-05_12:46:53 on domain   3:     .09636 elapsed seconds
Timing for main: time 2016-02-05_12:47:06 on domain   3:     .08726 elapsed seconds
Timing for main: time 2016-02-05_12:47:20 on domain   3:     .08706 elapsed seconds
Timing for main: time 2016-02-05_12:47:00 on domain   4:     .09831 elapsed seconds
Timing for main: time 2016-02-05_12:47:20 on domain   4:     .09533 elapsed seconds
Timing for main: time 2016-02-05_12:47:20 on domain   2:     .89427 elapsed seconds
Timing for main: time 2016-02-05_12:47:33 on domain   3:     .09664 elapsed seconds
Timing for main: time 2016-02-05_12:47:46 on domain   3:     .08693 elapsed seconds
Timing for main: time 2016-02-05_12:48:00 on domain   3:     .08811 elapsed seconds
Timing for main: time 2016-02-05_12:47:40 on domain   4:     .09838 elapsed seconds
Timing for main: time 2016-02-05_12:48:00 on domain   4:     .09618 elapsed seconds
Timing for main: time 2016-02-05_12:48:00 on domain   2:     .89587 elapsed seconds
Timing for main: time 2016-02-05_12:48:00 on domain   1:    2.94619 elapsed seconds
Timing for main: time 2016-02-05_12:48:13 on domain   3:     .09788 elapsed seconds
Timing for main: time 2016-02-05_12:48:26 on domain   3:     .08674 elapsed seconds
Timing for main: time 2016-02-05_12:48:40 on domain   3:     .08666 elapsed seconds
Timing for main: time 2016-02-05_12:48:20 on domain   4:     .09799 elapsed seconds
Timing for main: time 2016-02-05_12:48:40 on domain   4:     .10012 elapsed seconds
Timing for main: time 2016-02-05_12:48:40 on domain   2:     .90092 elapsed seconds
Timing for main: time 2016-02-05_12:48:53 on domain   3:     .09955 elapsed seconds
Timing for main: time 2016-02-05_12:49:06 on domain   3:     .08770 elapsed seconds
Timing for main: time 2016-02-05_12:49:20 on domain   3:     .08900 elapsed seconds
Timing for main: time 2016-02-05_12:49:00 on domain   4:     .09792 elapsed seconds
Timing for main: time 2016-02-05_12:49:20 on domain   4:     .09797 elapsed seconds
Timing for main: time 2016-02-05_12:49:20 on domain   2:     .91758 elapsed seconds
Timing for main: time 2016-02-05_12:49:33 on domain   3:     .09691 elapsed seconds
Timing for main: time 2016-02-05_12:49:46 on domain   3:     .08477 elapsed seconds
Timing for main: time 2016-02-05_12:50:00 on domain   3:     .08677 elapsed seconds
Timing for main: time 2016-02-05_12:49:40 on domain   4:     .09581 elapsed seconds
Timing for main: time 2016-02-05_12:50:00 on domain   4:     .10029 elapsed seconds
Timing for main: time 2016-02-05_12:50:00 on domain   2:     .88609 elapsed seconds
Timing for main: time 2016-02-05_12:50:00 on domain   1:    2.95901 elapsed seconds
Timing for main: time 2016-02-05_12:50:13 on domain   3:     .10279 elapsed seconds
Timing for main: time 2016-02-05_12:50:26 on domain   3:     .12340 elapsed seconds
Timing for main: time 2016-02-05_12:50:40 on domain   3:     .08674 elapsed seconds
Timing for main: time 2016-02-05_12:50:20 on domain   4:     .09762 elapsed seconds
Timing for main: time 2016-02-05_12:50:40 on domain   4:     .09629 elapsed seconds
Timing for main: time 2016-02-05_12:50:40 on domain   2:     .96329 elapsed seconds
Timing for main: time 2016-02-05_12:50:53 on domain   3:     .09657 elapsed seconds
Timing for main: time 2016-02-05_12:51:06 on domain   3:     .08859 elapsed seconds
Timing for main: time 2016-02-05_12:51:20 on domain   3:     .08664 elapsed seconds
Timing for main: time 2016-02-05_12:51:00 on domain   4:     .09817 elapsed seconds
Timing for main: time 2016-02-05_12:51:20 on domain   4:     .09645 elapsed seconds
Timing for main: time 2016-02-05_12:51:20 on domain   2:     .88613 elapsed seconds
Timing for main: time 2016-02-05_12:51:33 on domain   3:     .09640 elapsed seconds
Timing for main: time 2016-02-05_12:51:46 on domain   3:     .08646 elapsed seconds
Timing for main: time 2016-02-05_12:52:00 on domain   3:     .08661 elapsed seconds
Timing for main: time 2016-02-05_12:51:40 on domain   4:     .09741 elapsed seconds
Timing for main: time 2016-02-05_12:52:00 on domain   4:     .09654 elapsed seconds
Timing for main: time 2016-02-05_12:52:00 on domain   2:     .88696 elapsed seconds
Timing for main: time 2016-02-05_12:52:00 on domain   1:    2.99162 elapsed seconds
Timing for main: time 2016-02-05_12:52:13 on domain   3:     .09696 elapsed seconds
Timing for main: time 2016-02-05_12:52:26 on domain   3:     .08805 elapsed seconds
Timing for main: time 2016-02-05_12:52:40 on domain   3:     .08621 elapsed seconds
Timing for main: time 2016-02-05_12:52:20 on domain   4:     .09792 elapsed seconds
Timing for main: time 2016-02-05_12:52:40 on domain   4:     .09667 elapsed seconds
Timing for main: time 2016-02-05_12:52:40 on domain   2:     .89740 elapsed seconds
Timing for main: time 2016-02-05_12:52:53 on domain   3:     .09730 elapsed seconds
Timing for main: time 2016-02-05_12:53:06 on domain   3:     .08616 elapsed seconds
Timing for main: time 2016-02-05_12:53:20 on domain   3:     .08620 elapsed seconds
Timing for main: time 2016-02-05_12:53:00 on domain   4:     .09789 elapsed seconds
Timing for main: time 2016-02-05_12:53:20 on domain   4:     .09632 elapsed seconds
Timing for main: time 2016-02-05_12:53:20 on domain   2:     .89255 elapsed seconds
Timing for main: time 2016-02-05_12:53:33 on domain   3:     .09696 elapsed seconds
Timing for main: time 2016-02-05_12:53:46 on domain   3:     .08832 elapsed seconds
Timing for main: time 2016-02-05_12:54:00 on domain   3:     .08660 elapsed seconds
Timing for main: time 2016-02-05_12:53:40 on domain   4:     .09768 elapsed seconds
Timing for main: time 2016-02-05_12:54:00 on domain   4:     .10101 elapsed seconds
Timing for main: time 2016-02-05_12:54:00 on domain   2:     .89419 elapsed seconds
Timing for main: time 2016-02-05_12:54:00 on domain   1:    2.91854 elapsed seconds
Timing for main: time 2016-02-05_12:54:13 on domain   3:     .09741 elapsed seconds
Timing for main: time 2016-02-05_12:54:26 on domain   3:     .08564 elapsed seconds
Timing for main: time 2016-02-05_12:54:40 on domain   3:     .09089 elapsed seconds
Timing for main: time 2016-02-05_12:54:20 on domain   4:     .09722 elapsed seconds
Timing for main: time 2016-02-05_12:54:40 on domain   4:     .09661 elapsed seconds
Timing for main: time 2016-02-05_12:54:40 on domain   2:     .89608 elapsed seconds
Timing for main: time 2016-02-05_12:54:53 on domain   3:     .09777 elapsed seconds
Timing for main: time 2016-02-05_12:55:06 on domain   3:     .08265 elapsed seconds
Timing for main: time 2016-02-05_12:55:20 on domain   3:     .09703 elapsed seconds
Timing for main: time 2016-02-05_12:55:00 on domain   4:     .10401 elapsed seconds
Timing for main: time 2016-02-05_12:55:20 on domain   4:     .11947 elapsed seconds
Timing for main: time 2016-02-05_12:55:20 on domain   2:     .97035 elapsed seconds
Timing for main: time 2016-02-05_12:55:33 on domain   3:     .09622 elapsed seconds
Timing for main: time 2016-02-05_12:55:46 on domain   3:     .08829 elapsed seconds
Timing for main: time 2016-02-05_12:56:00 on domain   3:     .08773 elapsed seconds
Timing for main: time 2016-02-05_12:55:40 on domain   4:     .09773 elapsed seconds
Timing for main: time 2016-02-05_12:56:00 on domain   4:     .09629 elapsed seconds
Timing for main: time 2016-02-05_12:56:00 on domain   2:     .94098 elapsed seconds
Timing for main: time 2016-02-05_12:56:00 on domain   1:    3.03879 elapsed seconds
Timing for main: time 2016-02-05_12:56:13 on domain   3:     .10098 elapsed seconds
Timing for main: time 2016-02-05_12:56:26 on domain   3:     .08492 elapsed seconds
Timing for main: time 2016-02-05_12:56:40 on domain   3:     .08678 elapsed seconds
Timing for main: time 2016-02-05_12:56:20 on domain   4:     .09602 elapsed seconds
Timing for main: time 2016-02-05_12:56:40 on domain   4:     .09719 elapsed seconds
Timing for main: time 2016-02-05_12:56:40 on domain   2:     .89877 elapsed seconds
Timing for main: time 2016-02-05_12:56:53 on domain   3:     .09712 elapsed seconds
Timing for main: time 2016-02-05_12:57:06 on domain   3:     .08669 elapsed seconds
Timing for main: time 2016-02-05_12:57:20 on domain   3:     .08510 elapsed seconds
Timing for main: time 2016-02-05_12:57:00 on domain   4:     .09785 elapsed seconds
Timing for main: time 2016-02-05_12:57:20 on domain   4:     .09636 elapsed seconds
Timing for main: time 2016-02-05_12:57:20 on domain   2:     .88700 elapsed seconds
Timing for main: time 2016-02-05_12:57:33 on domain   3:     .09710 elapsed seconds
Timing for main: time 2016-02-05_12:57:46 on domain   3:     .08652 elapsed seconds
Timing for main: time 2016-02-05_12:58:00 on domain   3:     .08686 elapsed seconds
Timing for main: time 2016-02-05_12:57:40 on domain   4:     .09800 elapsed seconds
Timing for main: time 2016-02-05_12:58:00 on domain   4:     .09612 elapsed seconds
Timing for main: time 2016-02-05_12:58:00 on domain   2:     .88905 elapsed seconds
Timing for main: time 2016-02-05_12:58:00 on domain   1:    2.90917 elapsed seconds
  photolysis_driver: called for domain  1
Timing for main: time 2016-02-05_12:58:13 on domain   3:     .09714 elapsed seconds
Timing for main: time 2016-02-05_12:58:26 on domain   3:     .08501 elapsed seconds
Timing for main: time 2016-02-05_12:58:40 on domain   3:     .08681 elapsed seconds
Timing for main: time 2016-02-05_12:58:20 on domain   4:     .09841 elapsed seconds
Timing for main: time 2016-02-05_12:58:40 on domain   4:     .09614 elapsed seconds
Timing for main: time 2016-02-05_12:58:40 on domain   2:     .89781 elapsed seconds
Timing for main: time 2016-02-05_12:58:53 on domain   3:     .09674 elapsed seconds
Timing for main: time 2016-02-05_12:59:06 on domain   3:     .08770 elapsed seconds
Timing for main: time 2016-02-05_12:59:20 on domain   3:     .08850 elapsed seconds
Timing for main: time 2016-02-05_12:59:00 on domain   4:     .09853 elapsed seconds
Timing for main: time 2016-02-05_12:59:20 on domain   4:     .09633 elapsed seconds
Timing for main: time 2016-02-05_12:59:20 on domain   2:     .88962 elapsed seconds
  photolysis_driver: called for domain  2
Timing for main: time 2016-02-05_12:59:33 on domain   3:     .09697 elapsed seconds
Timing for main: time 2016-02-05_12:59:46 on domain   3:     .08675 elapsed seconds
  photolysis_driver: called for domain  3
Timing for main: time 2016-02-05_13:00:00 on domain   3:     .43639 elapsed seconds
Timing for main: time 2016-02-05_12:59:40 on domain   4:     .09698 elapsed seconds
  photolysis_driver: called for domain  4
Timing for main: time 2016-02-05_13:00:00 on domain   4:     .50596 elapsed seconds
Timing for main: time 2016-02-05_13:00:00 on domain   2:    2.11349 elapsed seconds
Timing for main: time 2016-02-05_13:00:00 on domain   1:    4.41859 elapsed seconds
Timing for Writing wrfout_d01_2016-02-05_13:00:00 for domain        1:    2.11126 elapsed seconds
  HOURLY EMISSIONS UPDATE TIME     3600.0        .0
 mediation_integrate: med_read_wrf_chem_emissions: Read emissions for time 2016-02-05_13:00:00
 **WARNING** Time in input file not being checked **WARNING**
Timing for Writing wrfout_d02_2016-02-05_13:00:00 for domain        2:    2.68537 elapsed seconds
Timing for Writing wrfout_d03_2016-02-05_13:00:00 for domain        3:    2.76393 elapsed seconds
Timing for main: time 2016-02-05_13:00:13 on domain   3:    2.93833 elapsed seconds
Timing for main: time 2016-02-05_13:00:26 on domain   3:     .09896 elapsed seconds
Timing for main: time 2016-02-05_13:00:40 on domain   3:     .09484 elapsed seconds
Timing for Writing wrfout_d04_2016-02-05_13:00:00 for domain        4:    2.72951 elapsed seconds
Timing for main: time 2016-02-05_13:00:20 on domain   4:    2.91770 elapsed seconds
Timing for main: time 2016-02-05_13:00:40 on domain   4:     .11175 elapsed seconds
Timing for main: time 2016-02-05_13:00:40 on domain   2:    9.38617 elapsed seconds
Timing for main: time 2016-02-05_13:00:53 on domain   3:     .09889 elapsed seconds
Timing for main: time 2016-02-05_13:01:06 on domain   3:     .08316 elapsed seconds
Timing for main: time 2016-02-05_13:01:20 on domain   3:     .08862 elapsed seconds
Timing for main: time 2016-02-05_13:01:00 on domain   4:     .11813 elapsed seconds
Timing for main: time 2016-02-05_13:01:20 on domain   4:     .14567 elapsed seconds
Timing for main: time 2016-02-05_13:01:20 on domain   2:    1.01253 elapsed seconds
Timing for main: time 2016-02-05_13:01:33 on domain   3:     .09671 elapsed seconds
Timing for main: time 2016-02-05_13:01:46 on domain   3:     .08667 elapsed seconds
Timing for main: time 2016-02-05_13:02:00 on domain   3:     .08801 elapsed seconds
Timing for main: time 2016-02-05_13:01:40 on domain   4:     .09801 elapsed seconds
Timing for main: time 2016-02-05_13:02:00 on domain   4:     .10418 elapsed seconds
Timing for main: time 2016-02-05_13:02:00 on domain   2:     .92749 elapsed seconds
Timing for main: time 2016-02-05_13:02:00 on domain   1:   14.40113 elapsed seconds
Timing for main: time 2016-02-05_13:02:13 on domain   3:     .09808 elapsed seconds
Timing for main: time 2016-02-05_13:02:26 on domain   3:     .08687 elapsed seconds
Timing for main: time 2016-02-05_13:02:40 on domain   3:     .08653 elapsed seconds
Timing for main: time 2016-02-05_13:02:20 on domain   4:     .09763 elapsed seconds
Timing for main: time 2016-02-05_13:02:40 on domain   4:     .09656 elapsed seconds
Timing for main: time 2016-02-05_13:02:40 on domain   2:     .89507 elapsed seconds
Timing for main: time 2016-02-05_13:02:53 on domain   3:     .09705 elapsed seconds
Timing for main: time 2016-02-05_13:03:06 on domain   3:     .08713 elapsed seconds
Timing for main: time 2016-02-05_13:03:20 on domain   3:     .08349 elapsed seconds
Timing for main: time 2016-02-05_13:03:00 on domain   4:     .09858 elapsed seconds
Timing for main: time 2016-02-05_13:03:20 on domain   4:     .09619 elapsed seconds
Timing for main: time 2016-02-05_13:03:20 on domain   2:     .90138 elapsed seconds
Timing for main: time 2016-02-05_13:03:33 on domain   3:     .09677 elapsed seconds
Timing for main: time 2016-02-05_13:03:46 on domain   3:     .08703 elapsed seconds
Timing for main: time 2016-02-05_13:04:00 on domain   3:     .08809 elapsed seconds
Timing for main: time 2016-02-05_13:03:40 on domain   4:     .09770 elapsed seconds
Timing for main: time 2016-02-05_13:04:00 on domain   4:     .09490 elapsed seconds
Timing for main: time 2016-02-05_13:04:00 on domain   2:     .89252 elapsed seconds
Timing for main: time 2016-02-05_13:04:00 on domain   1:    2.91989 elapsed seconds
Timing for main: time 2016-02-05_13:04:13 on domain   3:     .09714 elapsed seconds
Timing for main: time 2016-02-05_13:04:26 on domain   3:     .08738 elapsed seconds
Timing for main: time 2016-02-05_13:04:40 on domain   3:     .08659 elapsed seconds
Timing for main: time 2016-02-05_13:04:20 on domain   4:     .09703 elapsed seconds
Timing for main: time 2016-02-05_13:04:40 on domain   4:     .09649 elapsed seconds
Timing for main: time 2016-02-05_13:04:40 on domain   2:     .89481 elapsed seconds
Timing for main: time 2016-02-05_13:04:53 on domain   3:     .09710 elapsed seconds
Timing for main: time 2016-02-05_13:05:06 on domain   3:     .08689 elapsed seconds
Timing for main: time 2016-02-05_13:05:20 on domain   3:     .08647 elapsed seconds
Timing for main: time 2016-02-05_13:05:00 on domain   4:     .10198 elapsed seconds
Timing for main: time 2016-02-05_13:05:20 on domain   4:     .09460 elapsed seconds
Timing for main: time 2016-02-05_13:05:20 on domain   2:     .89143 elapsed seconds
Timing for main: time 2016-02-05_13:05:33 on domain   3:     .09684 elapsed seconds
Timing for main: time 2016-02-05_13:05:46 on domain   3:     .08702 elapsed seconds
Timing for main: time 2016-02-05_13:06:00 on domain   3:     .08643 elapsed seconds
Timing for main: time 2016-02-05_13:05:40 on domain   4:     .09814 elapsed seconds
Timing for main: time 2016-02-05_13:06:00 on domain   4:     .09527 elapsed seconds
Timing for main: time 2016-02-05_13:06:00 on domain   2:     .88800 elapsed seconds
Timing for main: time 2016-02-05_13:06:00 on domain   1:    2.91124 elapsed seconds
Timing for main: time 2016-02-05_13:06:13 on domain   3:     .09693 elapsed seconds
Timing for main: time 2016-02-05_13:06:26 on domain   3:     .09136 elapsed seconds
Timing for main: time 2016-02-05_13:06:40 on domain   3:     .08634 elapsed seconds
Timing for main: time 2016-02-05_13:06:20 on domain   4:     .09703 elapsed seconds
Timing for main: time 2016-02-05_13:06:40 on domain   4:     .09437 elapsed seconds
Timing for main: time 2016-02-05_13:06:40 on domain   2:     .89701 elapsed seconds
Timing for main: time 2016-02-05_13:06:53 on domain   3:     .09793 elapsed seconds
Timing for main: time 2016-02-05_13:07:06 on domain   3:     .08643 elapsed seconds
Timing for main: time 2016-02-05_13:07:20 on domain   3:     .08796 elapsed seconds
Timing for main: time 2016-02-05_13:07:00 on domain   4:     .09802 elapsed seconds
Timing for main: time 2016-02-05_13:07:20 on domain   4:     .09832 elapsed seconds
Timing for main: time 2016-02-05_13:07:20 on domain   2:     .89208 elapsed seconds
Timing for main: time 2016-02-05_13:07:33 on domain   3:     .09697 elapsed seconds
Timing for main: time 2016-02-05_13:07:46 on domain   3:     .08639 elapsed seconds
Timing for main: time 2016-02-05_13:08:00 on domain   3:     .08841 elapsed seconds
Timing for main: time 2016-02-05_13:07:40 on domain   4:     .10138 elapsed seconds
Timing for main: time 2016-02-05_13:08:00 on domain   4:     .11283 elapsed seconds
Timing for main: time 2016-02-05_13:08:00 on domain   2:     .92770 elapsed seconds
Timing for main: time 2016-02-05_13:08:00 on domain   1:    2.94753 elapsed seconds
Timing for main: time 2016-02-05_13:08:13 on domain   3:     .09701 elapsed seconds
Timing for main: time 2016-02-05_13:08:26 on domain   3:     .08555 elapsed seconds
Timing for main: time 2016-02-05_13:08:40 on domain   3:     .08657 elapsed seconds
Timing for main: time 2016-02-05_13:08:20 on domain   4:     .09752 elapsed seconds
Timing for main: time 2016-02-05_13:08:40 on domain   4:     .09695 elapsed seconds
Timing for main: time 2016-02-05_13:08:40 on domain   2:     .89515 elapsed seconds
Timing for main: time 2016-02-05_13:08:53 on domain   3:     .09689 elapsed seconds
Timing for main: time 2016-02-05_13:09:06 on domain   3:     .08699 elapsed seconds
Timing for main: time 2016-02-05_13:09:20 on domain   3:     .08620 elapsed seconds
Timing for main: time 2016-02-05_13:09:00 on domain   4:     .09813 elapsed seconds
Timing for main: time 2016-02-05_13:09:20 on domain   4:     .09624 elapsed seconds
Timing for main: time 2016-02-05_13:09:20 on domain   2:     .88947 elapsed seconds
Timing for main: time 2016-02-05_13:09:33 on domain   3:     .09760 elapsed seconds
Timing for main: time 2016-02-05_13:09:46 on domain   3:     .08711 elapsed seconds
Timing for main: time 2016-02-05_13:10:00 on domain   3:     .08727 elapsed seconds
Timing for main: time 2016-02-05_13:09:40 on domain   4:     .09782 elapsed seconds
Timing for main: time 2016-02-05_13:10:00 on domain   4:     .10039 elapsed seconds
Timing for main: time 2016-02-05_13:10:00 on domain   2:     .89429 elapsed seconds
Timing for main: time 2016-02-05_13:10:00 on domain   1:    2.90964 elapsed seconds
Timing for main: time 2016-02-05_13:10:13 on domain   3:     .09689 elapsed seconds
Timing for main: time 2016-02-05_13:10:26 on domain   3:     .08549 elapsed seconds
Timing for main: time 2016-02-05_13:10:40 on domain   3:     .08652 elapsed seconds
Timing for main: time 2016-02-05_13:10:20 on domain   4:     .09819 elapsed seconds
Timing for main: time 2016-02-05_13:10:40 on domain   4:     .09666 elapsed seconds
Timing for main: time 2016-02-05_13:10:40 on domain   2:     .89388 elapsed seconds
Timing for main: time 2016-02-05_13:10:53 on domain   3:     .09794 elapsed seconds
Timing for main: time 2016-02-05_13:11:06 on domain   3:     .08548 elapsed seconds
Timing for main: time 2016-02-05_13:11:20 on domain   3:     .08656 elapsed seconds
Timing for main: time 2016-02-05_13:11:00 on domain   4:     .09798 elapsed seconds
Timing for main: time 2016-02-05_13:11:20 on domain   4:     .09657 elapsed seconds
Timing for main: time 2016-02-05_13:11:20 on domain   2:     .88847 elapsed seconds
Timing for main: time 2016-02-05_13:11:33 on domain   3:     .10018 elapsed seconds
Timing for main: time 2016-02-05_13:11:46 on domain   3:     .08514 elapsed seconds
Timing for main: time 2016-02-05_13:12:00 on domain   3:     .08764 elapsed seconds
Timing for main: time 2016-02-05_13:11:40 on domain   4:     .09807 elapsed seconds
Timing for main: time 2016-02-05_13:12:00 on domain   4:     .09709 elapsed seconds
Timing for main: time 2016-02-05_13:12:00 on domain   2:     .89290 elapsed seconds
Timing for main: time 2016-02-05_13:12:00 on domain   1:    2.90928 elapsed seconds
Timing for main: time 2016-02-05_13:12:13 on domain   3:     .09695 elapsed seconds
Timing for main: time 2016-02-05_13:12:26 on domain   3:     .08523 elapsed seconds
Timing for main: time 2016-02-05_13:12:40 on domain   3:     .10628 elapsed seconds
Timing for main: time 2016-02-05_13:12:20 on domain   4:     .09711 elapsed seconds
Timing for main: time 2016-02-05_13:12:40 on domain   4:     .09862 elapsed seconds
Timing for main: time 2016-02-05_13:12:40 on domain   2:     .95173 elapsed seconds
Timing for main: time 2016-02-05_13:12:53 on domain   3:     .09714 elapsed seconds
Timing for main: time 2016-02-05_13:13:06 on domain   3:     .08647 elapsed seconds
Timing for main: time 2016-02-05_13:13:20 on domain   3:     .08691 elapsed seconds
Timing for main: time 2016-02-05_13:13:00 on domain   4:     .09835 elapsed seconds
Timing for main: time 2016-02-05_13:13:20 on domain   4:     .09781 elapsed seconds
Timing for main: time 2016-02-05_13:13:20 on domain   2:     .89000 elapsed seconds
Timing for main: time 2016-02-05_13:13:33 on domain   3:     .09688 elapsed seconds
Timing for main: time 2016-02-05_13:13:46 on domain   3:     .08318 elapsed seconds
Timing for main: time 2016-02-05_13:14:00 on domain   3:     .08674 elapsed seconds
Timing for main: time 2016-02-05_13:13:40 on domain   4:     .09798 elapsed seconds
Timing for main: time 2016-02-05_13:14:00 on domain   4:     .09610 elapsed seconds
Timing for main: time 2016-02-05_13:14:00 on domain   2:     .89932 elapsed seconds
Timing for main: time 2016-02-05_13:14:00 on domain   1:    2.97609 elapsed seconds
Timing for main: time 2016-02-05_13:14:13 on domain   3:     .09791 elapsed seconds
Timing for main: time 2016-02-05_13:14:26 on domain   3:     .08966 elapsed seconds
Timing for main: time 2016-02-05_13:14:40 on domain   3:     .11543 elapsed seconds
Timing for main: time 2016-02-05_13:14:20 on domain   4:     .09978 elapsed seconds
Timing for main: time 2016-02-05_13:14:40 on domain   4:     .09532 elapsed seconds
Timing for main: time 2016-02-05_13:14:40 on domain   2:     .96441 elapsed seconds
Timing for main: time 2016-02-05_13:14:53 on domain   3:     .09718 elapsed seconds
Timing for main: time 2016-02-05_13:15:06 on domain   3:     .08627 elapsed seconds
Timing for main: time 2016-02-05_13:15:20 on domain   3:     .08671 elapsed seconds
Timing for main: time 2016-02-05_13:15:00 on domain   4:     .10208 elapsed seconds
Timing for main: time 2016-02-05_13:15:20 on domain   4:     .09648 elapsed seconds
Timing for main: time 2016-02-05_13:15:20 on domain   2:     .89404 elapsed seconds
Timing for main: time 2016-02-05_13:15:33 on domain   3:     .09816 elapsed seconds
Timing for main: time 2016-02-05_13:15:46 on domain   3:     .08612 elapsed seconds
Timing for main: time 2016-02-05_13:16:00 on domain   3:     .08681 elapsed seconds
Timing for main: time 2016-02-05_13:15:40 on domain   4:     .09743 elapsed seconds
Timing for main: time 2016-02-05_13:16:00 on domain   4:     .09670 elapsed seconds
Timing for main: time 2016-02-05_13:16:00 on domain   2:     .88745 elapsed seconds
Timing for main: time 2016-02-05_13:16:00 on domain   1:    2.97717 elapsed seconds
Timing for main: time 2016-02-05_13:16:13 on domain   3:     .09837 elapsed seconds
Timing for main: time 2016-02-05_13:16:26 on domain   3:     .09080 elapsed seconds
Timing for main: time 2016-02-05_13:16:40 on domain   3:     .09363 elapsed seconds
Timing for main: time 2016-02-05_13:16:20 on domain   4:     .09751 elapsed seconds
Timing for main: time 2016-02-05_13:16:40 on domain   4:     .09738 elapsed seconds
Timing for main: time 2016-02-05_13:16:40 on domain   2:     .90754 elapsed seconds
Timing for main: time 2016-02-05_13:16:53 on domain   3:     .09716 elapsed seconds
Timing for main: time 2016-02-05_13:17:06 on domain   3:     .08620 elapsed seconds
Timing for main: time 2016-02-05_13:17:20 on domain   3:     .08730 elapsed seconds
Timing for main: time 2016-02-05_13:17:00 on domain   4:     .09795 elapsed seconds
Timing for main: time 2016-02-05_13:17:20 on domain   4:     .09815 elapsed seconds
Timing for main: time 2016-02-05_13:17:20 on domain   2:     .89328 elapsed seconds
Timing for main: time 2016-02-05_13:17:33 on domain   3:     .09746 elapsed seconds
Timing for main: time 2016-02-05_13:17:46 on domain   3:     .08664 elapsed seconds
[...]
Timing for main: time 2016-02-05_17:36:00 on domain   2:     .89651 elapsed seconds
Timing for main: time 2016-02-05_17:36:00 on domain   1:    2.92344 elapsed seconds
Timing for main: time 2016-02-05_17:36:13 on domain   3:     .09768 elapsed seconds
Timing for main: time 2016-02-05_17:36:26 on domain   3:     .08538 elapsed seconds
Timing for main: time 2016-02-05_17:36:40 on domain   3:     .08744 elapsed seconds
Timing for main: time 2016-02-05_17:36:20 on domain   4:     .10133 elapsed seconds
Timing for main: time 2016-02-05_17:36:40 on domain   4:     .11392 elapsed seconds
Timing for main: time 2016-02-05_17:36:40 on domain   2:     .91737 elapsed seconds
Timing for main: time 2016-02-05_17:36:53 on domain   3:     .09754 elapsed seconds
Timing for main: time 2016-02-05_17:37:06 on domain   3:     .08717 elapsed seconds
Timing for main: time 2016-02-05_17:37:20 on domain   3:     .09122 elapsed seconds
Timing for main: time 2016-02-05_17:37:00 on domain   4:     .09736 elapsed seconds
Timing for main: time 2016-02-05_17:37:20 on domain   4:     .09765 elapsed seconds
Timing for main: time 2016-02-05_17:37:20 on domain   2:     .91196 elapsed seconds
Timing for main: time 2016-02-05_17:37:33 on domain   3:     .09764 elapsed seconds
Timing for main: time 2016-02-05_17:37:46 on domain   3:     .08803 elapsed seconds
Timing for main: time 2016-02-05_17:38:00 on domain   3:     .08810 elapsed seconds
Timing for main: time 2016-02-05_17:37:40 on domain   4:     .09736 elapsed seconds
Timing for main: time 2016-02-05_17:38:00 on domain   4:     .09675 elapsed seconds
Timing for main: time 2016-02-05_17:38:00 on domain   2:     .89399 elapsed seconds
Timing for main: time 2016-02-05_17:38:00 on domain   1:    2.95589 elapsed seconds
Timing for main: time 2016-02-05_17:38:13 on domain   3:     .09758 elapsed seconds
Timing for main: time 2016-02-05_17:38:26 on domain   3:     .08864 elapsed seconds
Timing for main: time 2016-02-05_17:38:40 on domain   3:     .09101 elapsed seconds
Timing for main: time 2016-02-05_17:38:20 on domain   4:     .09803 elapsed seconds
Timing for main: time 2016-02-05_17:38:40 on domain   4:     .09633 elapsed seconds
Timing for main: time 2016-02-05_17:38:40 on domain   2:     .90355 elapsed seconds
Timing for main: time 2016-02-05_17:38:53 on domain   3:     .09831 elapsed seconds
Timing for main: time 2016-02-05_17:39:06 on domain   3:     .08710 elapsed seconds
Timing for main: time 2016-02-05_17:39:20 on domain   3:     .08819 elapsed seconds
Timing for main: time 2016-02-05_17:39:00 on domain   4:     .09694 elapsed seconds
Timing for main: time 2016-02-05_17:39:20 on domain   4:     .09687 elapsed seconds
Timing for main: time 2016-02-05_17:39:20 on domain   2:     .89632 elapsed seconds
Timing for main: time 2016-02-05_17:39:33 on domain   3:     .09771 elapsed seconds
Timing for main: time 2016-02-05_17:39:46 on domain   3:     .08744 elapsed seconds
Timing for main: time 2016-02-05_17:40:00 on domain   3:     .08720 elapsed seconds
Timing for main: time 2016-02-05_17:39:40 on domain   4:     .09803 elapsed seconds
Timing for main: time 2016-02-05_17:40:00 on domain   4:     .09967 elapsed seconds
Timing for main: time 2016-02-05_17:40:00 on domain   2:     .89593 elapsed seconds
Timing for main: time 2016-02-05_17:40:00 on domain   1:    2.92815 elapsed seconds
Timing for main: time 2016-02-05_17:40:13 on domain   3:     .09883 elapsed seconds
Timing for main: time 2016-02-05_17:40:26 on domain   3:     .12477 elapsed seconds
Timing for main: time 2016-02-05_17:40:40 on domain   3:     .12462 elapsed seconds
Timing for main: time 2016-02-05_17:40:20 on domain   4:     .10005 elapsed seconds
Timing for main: time 2016-02-05_17:40:40 on domain   4:     .09533 elapsed seconds
Timing for main: time 2016-02-05_17:40:40 on domain   2:     .98540 elapsed seconds
Timing for main: time 2016-02-05_17:40:53 on domain   3:     .09933 elapsed seconds
Timing for main: time 2016-02-05_17:41:06 on domain   3:     .08736 elapsed seconds
Timing for main: time 2016-02-05_17:41:20 on domain   3:     .08802 elapsed seconds
Timing for main: time 2016-02-05_17:41:00 on domain   4:     .10018 elapsed seconds
Timing for main: time 2016-02-05_17:41:20 on domain   4:     .09656 elapsed seconds
Timing for main: time 2016-02-05_17:41:20 on domain   2:     .89988 elapsed seconds
Timing for main: time 2016-02-05_17:41:33 on domain   3:     .09767 elapsed seconds
Timing for main: time 2016-02-05_17:41:46 on domain   3:     .08927 elapsed seconds
Timing for main: time 2016-02-05_17:42:00 on domain   3:     .08692 elapsed seconds
Timing for main: time 2016-02-05_17:41:40 on domain   4:     .09812 elapsed seconds
Timing for main: time 2016-02-05_17:42:00 on domain   4:     .09507 elapsed seconds
Timing for main: time 2016-02-05_17:42:00 on domain   2:     .89216 elapsed seconds
Timing for main: time 2016-02-05_17:42:00 on domain   1:    3.01381 elapsed seconds
Timing for main: time 2016-02-05_17:42:13 on domain   3:     .09738 elapsed seconds
Timing for main: time 2016-02-05_17:42:26 on domain   3:     .09356 elapsed seconds
Timing for main: time 2016-02-05_17:42:40 on domain   3:     .08723 elapsed seconds
Timing for main: time 2016-02-05_17:42:20 on domain   4:     .09794 elapsed seconds
Timing for main: time 2016-02-05_17:42:40 on domain   4:     .09505 elapsed seconds
Timing for main: time 2016-02-05_17:42:40 on domain   2:     .90322 elapsed seconds
Timing for main: time 2016-02-05_17:42:53 on domain   3:     .09738 elapsed seconds
Timing for main: time 2016-02-05_17:43:06 on domain   3:     .08763 elapsed seconds
Timing for main: time 2016-02-05_17:43:20 on domain   3:     .08831 elapsed seconds
Timing for main: time 2016-02-05_17:43:00 on domain   4:     .09735 elapsed seconds
Timing for main: time 2016-02-05_17:43:20 on domain   4:     .09542 elapsed seconds
Timing for main: time 2016-02-05_17:43:20 on domain   2:     .89200 elapsed seconds
Timing for main: time 2016-02-05_17:43:33 on domain   3:     .09726 elapsed seconds
Timing for main: time 2016-02-05_17:43:46 on domain   3:     .08732 elapsed seconds
Timing for main: time 2016-02-05_17:44:00 on domain   3:     .08713 elapsed seconds
Timing for main: time 2016-02-05_17:43:40 on domain   4:     .09749 elapsed seconds
Timing for main: time 2016-02-05_17:44:00 on domain   4:     .09656 elapsed seconds
Timing for main: time 2016-02-05_17:44:00 on domain   2:     .89509 elapsed seconds
Timing for main: time 2016-02-05_17:44:00 on domain   1:    2.94724 elapsed seconds
Timing for main: time 2016-02-05_17:44:13 on domain   3:     .09757 elapsed seconds
Timing for main: time 2016-02-05_17:44:26 on domain   3:     .08610 elapsed seconds
Timing for main: time 2016-02-05_17:44:40 on domain   3:     .08909 elapsed seconds
Timing for main: time 2016-02-05_17:44:20 on domain   4:     .09751 elapsed seconds
Timing for main: time 2016-02-05_17:44:40 on domain   4:     .09279 elapsed seconds
Timing for main: time 2016-02-05_17:44:40 on domain   2:     .91958 elapsed seconds
Timing for main: time 2016-02-05_17:44:53 on domain   3:     .09765 elapsed seconds
Timing for main: time 2016-02-05_17:45:06 on domain   3:     .08692 elapsed seconds
Timing for main: time 2016-02-05_17:45:20 on domain   3:     .09137 elapsed seconds
Timing for main: time 2016-02-05_17:45:00 on domain   4:     .11409 elapsed seconds
Timing for main: time 2016-02-05_17:45:20 on domain   4:     .10817 elapsed seconds
Timing for main: time 2016-02-05_17:45:20 on domain   2:     .96031 elapsed seconds
Timing for main: time 2016-02-05_17:45:33 on domain   3:     .09772 elapsed seconds
Timing for main: time 2016-02-05_17:45:46 on domain   3:     .08694 elapsed seconds
Timing for main: time 2016-02-05_17:46:00 on domain   3:     .08630 elapsed seconds
Timing for main: time 2016-02-05_17:45:40 on domain   4:     .09786 elapsed seconds
Timing for main: time 2016-02-05_17:46:00 on domain   4:     .09654 elapsed seconds
Timing for main: time 2016-02-05_17:46:00 on domain   2:     .91303 elapsed seconds
Timing for main: time 2016-02-05_17:46:00 on domain   1:    3.04585 elapsed seconds
Timing for main: time 2016-02-05_17:46:13 on domain   3:     .09734 elapsed seconds
Timing for main: time 2016-02-05_17:46:26 on domain   3:     .08565 elapsed seconds
Timing for main: time 2016-02-05_17:46:40 on domain   3:     .08729 elapsed seconds
Timing for main: time 2016-02-05_17:46:20 on domain   4:     .09698 elapsed seconds
Timing for main: time 2016-02-05_17:46:40 on domain   4:     .09668 elapsed seconds
Timing for main: time 2016-02-05_17:46:40 on domain   2:     .90333 elapsed seconds
Timing for main: time 2016-02-05_17:46:53 on domain   3:     .09756 elapsed seconds
Timing for main: time 2016-02-05_17:47:06 on domain   3:     .08596 elapsed seconds
Timing for main: time 2016-02-05_17:47:20 on domain   3:     .08896 elapsed seconds
Timing for main: time 2016-02-05_17:47:00 on domain   4:     .09727 elapsed seconds
Timing for main: time 2016-02-05_17:47:20 on domain   4:     .09655 elapsed seconds
Timing for main: time 2016-02-05_17:47:20 on domain   2:     .89219 elapsed seconds
Timing for main: time 2016-02-05_17:47:33 on domain   3:     .10058 elapsed seconds
Timing for main: time 2016-02-05_17:47:46 on domain   3:     .08627 elapsed seconds
Timing for main: time 2016-02-05_17:48:00 on domain   3:     .08850 elapsed seconds
Timing for main: time 2016-02-05_17:47:40 on domain   4:     .09868 elapsed seconds
Timing for main: time 2016-02-05_17:48:00 on domain   4:     .09692 elapsed seconds
Timing for main: time 2016-02-05_17:48:00 on domain   2:     .89625 elapsed seconds
Timing for main: time 2016-02-05_17:48:00 on domain   1:    2.92807 elapsed seconds
Timing for main: time 2016-02-05_17:48:13 on domain   3:     .09761 elapsed seconds
Timing for main: time 2016-02-05_17:48:26 on domain   3:     .08565 elapsed seconds
Timing for main: time 2016-02-05_17:48:40 on domain   3:     .08741 elapsed seconds
Timing for main: time 2016-02-05_17:48:20 on domain   4:     .09773 elapsed seconds
Timing for main: time 2016-02-05_17:48:40 on domain   4:     .09675 elapsed seconds
Timing for main: time 2016-02-05_17:48:40 on domain   2:     .89971 elapsed seconds
Timing for main: time 2016-02-05_17:48:53 on domain   3:     .09760 elapsed seconds
Timing for main: time 2016-02-05_17:49:06 on domain   3:     .08576 elapsed seconds
Timing for main: time 2016-02-05_17:49:20 on domain   3:     .08830 elapsed seconds
Timing for main: time 2016-02-05_17:49:00 on domain   4:     .09825 elapsed seconds
Timing for main: time 2016-02-05_17:49:20 on domain   4:     .09650 elapsed seconds
Timing for main: time 2016-02-05_17:49:20 on domain   2:     .89111 elapsed seconds
Timing for main: time 2016-02-05_17:49:33 on domain   3:     .09741 elapsed seconds
Timing for main: time 2016-02-05_17:49:46 on domain   3:     .08821 elapsed seconds
Timing for main: time 2016-02-05_17:50:00 on domain   3:     .08717 elapsed seconds
Timing for main: time 2016-02-05_17:49:40 on domain   4:     .09686 elapsed seconds
Timing for main: time 2016-02-05_17:50:00 on domain   4:     .10076 elapsed seconds
Timing for main: time 2016-02-05_17:50:00 on domain   2:     .89821 elapsed seconds
Timing for main: time 2016-02-05_17:50:00 on domain   1:    2.92134 elapsed seconds
Timing for main: time 2016-02-05_17:50:13 on domain   3:     .09731 elapsed seconds
Timing for main: time 2016-02-05_17:50:26 on domain   3:     .08593 elapsed seconds
Timing for main: time 2016-02-05_17:50:40 on domain   3:     .08778 elapsed seconds
Timing for main: time 2016-02-05_17:50:20 on domain   4:     .09808 elapsed seconds
Timing for main: time 2016-02-05_17:50:40 on domain   4:     .09872 elapsed seconds
Timing for main: time 2016-02-05_17:50:40 on domain   2:     .89929 elapsed seconds
Timing for main: time 2016-02-05_17:50:53 on domain   3:     .09746 elapsed seconds
Timing for main: time 2016-02-05_17:51:06 on domain   3:     .08701 elapsed seconds
Timing for main: time 2016-02-05_17:51:20 on domain   3:     .08707 elapsed seconds
Timing for main: time 2016-02-05_17:51:00 on domain   4:     .09783 elapsed seconds
Timing for main: time 2016-02-05_17:51:20 on domain   4:     .09635 elapsed seconds
Timing for main: time 2016-02-05_17:51:20 on domain   2:     .89285 elapsed seconds
Timing for main: time 2016-02-05_17:51:33 on domain   3:     .09832 elapsed seconds
Timing for main: time 2016-02-05_17:51:46 on domain   3:     .08751 elapsed seconds
Timing for main: time 2016-02-05_17:52:00 on domain   3:     .08727 elapsed seconds
Timing for main: time 2016-02-05_17:51:40 on domain   4:     .09726 elapsed seconds
Timing for main: time 2016-02-05_17:52:00 on domain   4:     .09647 elapsed seconds
Timing for main: time 2016-02-05_17:52:00 on domain   2:     .89681 elapsed seconds
Timing for main: time 2016-02-05_17:52:00 on domain   1:    2.92146 elapsed seconds
Timing for main: time 2016-02-05_17:52:13 on domain   3:     .09752 elapsed seconds
Timing for main: time 2016-02-05_17:52:26 on domain   3:     .08756 elapsed seconds
Timing for main: time 2016-02-05_17:52:40 on domain   3:     .09293 elapsed seconds
Timing for main: time 2016-02-05_17:52:20 on domain   4:     .16130 elapsed seconds
Timing for main: time 2016-02-05_17:52:40 on domain   4:     .09300 elapsed seconds
Timing for main: time 2016-02-05_17:52:40 on domain   2:     .96382 elapsed seconds
Timing for main: time 2016-02-05_17:52:53 on domain   3:     .09746 elapsed seconds
Timing for main: time 2016-02-05_17:53:06 on domain   3:     .08718 elapsed seconds
Timing for main: time 2016-02-05_17:53:20 on domain   3:     .08881 elapsed seconds
Timing for main: time 2016-02-05_17:53:00 on domain   4:     .09824 elapsed seconds
Timing for main: time 2016-02-05_17:53:20 on domain   4:     .09769 elapsed seconds
Timing for main: time 2016-02-05_17:53:20 on domain   2:     .89298 elapsed seconds
Timing for main: time 2016-02-05_17:53:33 on domain   3:     .09774 elapsed seconds
Timing for main: time 2016-02-05_17:53:46 on domain   3:     .08711 elapsed seconds
Timing for main: time 2016-02-05_17:54:00 on domain   3:     .08881 elapsed seconds
Timing for main: time 2016-02-05_17:53:40 on domain   4:     .09772 elapsed seconds
Timing for main: time 2016-02-05_17:54:00 on domain   4:     .09496 elapsed seconds
Timing for main: time 2016-02-05_17:54:00 on domain   2:     .89167 elapsed seconds
Timing for main: time 2016-02-05_17:54:00 on domain   1:    2.98490 elapsed seconds
Timing for main: time 2016-02-05_17:54:13 on domain   3:     .09760 elapsed seconds
Timing for main: time 2016-02-05_17:54:26 on domain   3:     .08696 elapsed seconds
Timing for main: time 2016-02-05_17:54:40 on domain   3:     .08724 elapsed seconds
Timing for main: time 2016-02-05_17:54:20 on domain   4:     .09694 elapsed seconds
Timing for main: time 2016-02-05_17:54:40 on domain   4:     .09658 elapsed seconds
Timing for main: time 2016-02-05_17:54:40 on domain   2:     .89770 elapsed seconds
Timing for main: time 2016-02-05_17:54:53 on domain   3:     .09781 elapsed seconds
Timing for main: time 2016-02-05_17:55:06 on domain   3:     .08845 elapsed seconds
Timing for main: time 2016-02-05_17:55:20 on domain   3:     .08783 elapsed seconds
Timing for main: time 2016-02-05_17:55:00 on domain   4:     .10161 elapsed seconds
Timing for main: time 2016-02-05_17:55:20 on domain   4:     .09515 elapsed seconds
Timing for main: time 2016-02-05_17:55:20 on domain   2:     .89714 elapsed seconds
Timing for main: time 2016-02-05_17:55:33 on domain   3:     .09728 elapsed seconds
Timing for main: time 2016-02-05_17:55:46 on domain   3:     .08789 elapsed seconds
Timing for main: time 2016-02-05_17:56:00 on domain   3:     .08974 elapsed seconds
Timing for main: time 2016-02-05_17:55:40 on domain   4:     .09788 elapsed seconds
Timing for main: time 2016-02-05_17:56:00 on domain   4:     .09583 elapsed seconds
Timing for main: time 2016-02-05_17:56:00 on domain   2:     .89089 elapsed seconds
Timing for main: time 2016-02-05_17:56:00 on domain   1:    2.91816 elapsed seconds
Timing for main: time 2016-02-05_17:56:13 on domain   3:     .09790 elapsed seconds
Timing for main: time 2016-02-05_17:56:26 on domain   3:     .08731 elapsed seconds
Timing for main: time 2016-02-05_17:56:40 on domain   3:     .08792 elapsed seconds
Timing for main: time 2016-02-05_17:56:20 on domain   4:     .13321 elapsed seconds
Timing for main: time 2016-02-05_17:56:40 on domain   4:     .13144 elapsed seconds
Timing for main: time 2016-02-05_17:56:40 on domain   2:     .96672 elapsed seconds
Timing for main: time 2016-02-05_17:56:53 on domain   3:     .09733 elapsed seconds
Timing for main: time 2016-02-05_17:57:06 on domain   3:     .09036 elapsed seconds
Timing for main: time 2016-02-05_17:57:20 on domain   3:     .08710 elapsed seconds
Timing for main: time 2016-02-05_17:57:00 on domain   4:     .09802 elapsed seconds
Timing for main: time 2016-02-05_17:57:20 on domain   4:     .09636 elapsed seconds
Timing for main: time 2016-02-05_17:57:20 on domain   2:     .91479 elapsed seconds
Timing for main: time 2016-02-05_17:57:33 on domain   3:     .09751 elapsed seconds
Timing for main: time 2016-02-05_17:57:46 on domain   3:     .09073 elapsed seconds
Timing for main: time 2016-02-05_17:58:00 on domain   3:     .08697 elapsed seconds
Timing for main: time 2016-02-05_17:57:40 on domain   4:     .09788 elapsed seconds
Timing for main: time 2016-02-05_17:58:00 on domain   4:     .09677 elapsed seconds
Timing for main: time 2016-02-05_17:58:00 on domain   2:     .89428 elapsed seconds
Timing for main: time 2016-02-05_17:58:00 on domain   1:    3.00820 elapsed seconds
  photolysis_driver: called for domain  1
Timing for main: time 2016-02-05_17:58:13 on domain   3:     .09758 elapsed seconds
Timing for main: time 2016-02-05_17:58:26 on domain   3:     .08718 elapsed seconds
Timing for main: time 2016-02-05_17:58:40 on domain   3:     .08744 elapsed seconds
Timing for main: time 2016-02-05_17:58:20 on domain   4:     .09796 elapsed seconds
Timing for main: time 2016-02-05_17:58:40 on domain   4:     .09995 elapsed seconds
Timing for main: time 2016-02-05_17:58:40 on domain   2:     .90025 elapsed seconds
Timing for main: time 2016-02-05_17:58:53 on domain   3:     .09774 elapsed seconds
Timing for main: time 2016-02-05_17:59:06 on domain   3:     .08781 elapsed seconds
Timing for main: time 2016-02-05_17:59:20 on domain   3:     .08919 elapsed seconds
Timing for main: time 2016-02-05_17:59:00 on domain   4:     .09825 elapsed seconds
Timing for main: time 2016-02-05_17:59:20 on domain   4:     .09627 elapsed seconds
Timing for main: time 2016-02-05_17:59:20 on domain   2:     .89470 elapsed seconds
  photolysis_driver: called for domain  2
Timing for main: time 2016-02-05_17:59:33 on domain   3:     .09814 elapsed seconds
Timing for main: time 2016-02-05_17:59:46 on domain   3:     .08719 elapsed seconds
  photolysis_driver: called for domain  3
Timing for main: time 2016-02-05_18:00:00 on domain   3:     .43705 elapsed seconds
Timing for Writing wrfout_d03_2016-02-05_18:00:00 for domain        3:    2.41194 elapsed seconds
Timing for main: time 2016-02-05_17:59:40 on domain   4:     .11021 elapsed seconds
  photolysis_driver: called for domain  4
Timing for main: time 2016-02-05_18:00:00 on domain   4:     .52950 elapsed seconds
Timing for Writing wrfout_d04_2016-02-05_18:00:00 for domain        4:    2.57537 elapsed seconds
Timing for main: time 2016-02-05_18:00:00 on domain   2:    7.14264 elapsed seconds
Timing for Writing wrfout_d02_2016-02-05_18:00:00 for domain        2:    3.21816 elapsed seconds
Timing for main: time 2016-02-05_18:00:00 on domain   1:   12.64304 elapsed seconds
Timing for Writing wrfout_d01_2016-02-05_18:00:00 for domain        1:    2.92667 elapsed seconds
 d01 2016-02-05_18:00:00 wrf: SUCCESS COMPLETE WRF
