taskid: 0 hostname: p10a51.pbm.ihost.com
  Ntasks in X  8 , ntasks in Y  10
 Setting blank km_opt entries to domain #1 values.
  --> The km_opt entry in the namelist.input is now max_domains.
 Setting blank diff_opt entries to domain #1 values.
  --> The diff_opt entry in the namelist.input is now max_domains.
 --- WARNING: traj_opt is zero, but num_traj is not zero; setting num_traj to zero.
 --- NOTE: hypsometric_opt is 2, setting adjust_heights = F
 --- NOTE: sst_update is 0, setting io_form_auxinput4 = 0 and auxinput4_interval = 0 for all domains
 --- NOTE: sst_update is 0, setting io_form_auxinput4 = 0 and auxinput4_interval = 0 for all domains
 --- NOTE: sst_update is 0, setting io_form_auxinput4 = 0 and auxinput4_interval = 0 for all domains
 --- NOTE: sst_update is 0, setting io_form_auxinput4 = 0 and auxinput4_interval = 0 for all domains
 --- NOTE: grid_fdda is 0 for domain      1, setting gfdda interval and ending time to 0 for that domain.
 --- NOTE: both grid_sfdda and pxlsm_soil_nudge are 0 for domain      1, setting sgfdda interval and ending time to 0 for that domain.
 --- NOTE: obs_nudge_opt is 0 for domain      1, setting obs nudging interval and ending time to 0 for that domain.
 --- NOTE: grid_fdda is 0 for domain      2, setting gfdda interval and ending time to 0 for that domain.
 --- NOTE: both grid_sfdda and pxlsm_soil_nudge are 0 for domain      2, setting sgfdda interval and ending time to 0 for that domain.
 --- NOTE: obs_nudge_opt is 0 for domain      2, setting obs nudging interval and ending time to 0 for that domain.
 --- NOTE: grid_fdda is 0 for domain      3, setting gfdda interval and ending time to 0 for that domain.
 --- NOTE: both grid_sfdda and pxlsm_soil_nudge are 0 for domain      3, setting sgfdda interval and ending time to 0 for that domain.
 --- NOTE: obs_nudge_opt is 0 for domain      3, setting obs nudging interval and ending time to 0 for that domain.
 --- NOTE: grid_fdda is 0 for domain      4, setting gfdda interval and ending time to 0 for that domain.
 --- NOTE: both grid_sfdda and pxlsm_soil_nudge are 0 for domain      4, setting sgfdda interval and ending time to 0 for that domain.
 --- NOTE: obs_nudge_opt is 0 for domain      4, setting obs nudging interval and ending time to 0 for that domain.
 bl_pbl_physics /= 4, implies mfshconv must be 0, resetting
 --- NOTE: num_soil_layers has been set to      4
 WRF V3.6 MODEL
  *************************************
  Parent domain
  ids,ide,jds,jde  1 271 1 181
  ims,ime,jms,jme  -4 41 -4 25
  ips,ipe,jps,jpe  1 34 1 18
  *************************************
 DYNAMICS OPTION: Eulerian Mass Coordinate
    alloc_space_field: domain  1 ,  137778416  bytes allocated
   med_initialdata_input: calling input_input
Timing for processing wrfinput file (stream 0) for domain        1:    4.25318 elapsed seconds
 INPUT LandUse = "USGS"
  LANDUSE TYPE = "USGS" FOUND 33  CATEGORIES 2  SEASONS WATER CATEGORY =  16  SNOW CATEGORY =  24
 INITIALIZE THREE Noah LSM RELATED TABLES
  LANDUSE TYPE = USGS FOUND 27  CATEGORIES
  INPUT SOIL TEXTURE CLASSIFICATION = STAS
  SOIL TEXTURE CLASSIFICATION = STAS FOUND 19  CATEGORIES
 *********************************************************************
 *             PROGRAM:WRF/CHEM V3.6 MODEL
 *                                                                   *
 *    PLEASE REPORT ANY BUGS TO WRF/CHEM HELP at                     *
 *                                                                   *
 *              wrfchemhelp.gsd@noaa.gov                             *
 *                                                                   *
 *********************************************************************
 WARNING: dust option 1 currently works only with the GOCART aerosol option.
 WARNING: sea salt option 1 currently works only with the GOCART aerosol option.
  *************************************
  Nesting domain
  ids,ide,jds,jde  1 361 1 253
  ims,ime,jms,jme  -4 57 -4 36
  ips,ipe,jps,jpe  1 45 1 26
  INTERMEDIATE domain
  ids,ide,jds,jde  74 199 47 136
  ims,ime,jms,jme  69 100 42 67
  ips,ipe,jps,jpe  72 90 45 57
  *************************************
 d01 2016-02-05_12:00:00  alloc_space_field: domain  2 ,  248467424  bytes allocated
 d01 2016-02-05_12:00:00  alloc_space_field: domain  2 ,  10479872  bytes allocated
 d01 2016-02-05_12:00:00 *** Initializing nest domain # 2 from an input file. ***
 d01 2016-02-05_12:00:00 med_initialdata_input: calling input_input
Timing for processing wrfinput file (stream 0) for domain        2:    6.79660 elapsed seconds
 INPUT LandUse = "USGS"
  LANDUSE TYPE = "USGS" FOUND 33  CATEGORIES 2  SEASONS WATER CATEGORY =  16  SNOW CATEGORY =  24
 INITIALIZE THREE Noah LSM RELATED TABLES
  LANDUSE TYPE = USGS FOUND 27  CATEGORIES
  INPUT SOIL TEXTURE CLASSIFICATION = STAS
  SOIL TEXTURE CLASSIFICATION = STAS FOUND 19  CATEGORIES
 *********************************************************************
 *             PROGRAM:WRF/CHEM V3.6 MODEL
 *                                                                   *
 *    PLEASE REPORT ANY BUGS TO WRF/CHEM HELP at                     *
 *                                                                   *
 *              wrfchemhelp.gsd@noaa.gov                             *
 *                                                                   *
 *********************************************************************
 WARNING: dust option 1 currently works only with the GOCART aerosol option.
 WARNING: sea salt option 1 currently works only with the GOCART aerosol option.
 INPUT LandUse = "USGS"
  LANDUSE TYPE = "USGS" FOUND 33  CATEGORIES 2  SEASONS WATER CATEGORY =  16  SNOW CATEGORY =  24
 INITIALIZE THREE Noah LSM RELATED TABLES
  LANDUSE TYPE = USGS FOUND 27  CATEGORIES
  INPUT SOIL TEXTURE CLASSIFICATION = STAS
  SOIL TEXTURE CLASSIFICATION = STAS FOUND 19  CATEGORIES
 *********************************************************************
 *             PROGRAM:WRF/CHEM V3.6 MODEL
 *                                                                   *
 *    PLEASE REPORT ANY BUGS TO WRF/CHEM HELP at                     *
 *                                                                   *
 *              wrfchemhelp.gsd@noaa.gov                             *
 *                                                                   *
 *********************************************************************
 WARNING: dust option 1 currently works only with the GOCART aerosol option.
 WARNING: sea salt option 1 currently works only with the GOCART aerosol option.
 INPUT LandUse = "USGS"
  LANDUSE TYPE = "USGS" FOUND 33  CATEGORIES 2  SEASONS WATER CATEGORY =  16  SNOW CATEGORY =  24
 INITIALIZE THREE Noah LSM RELATED TABLES
  LANDUSE TYPE = USGS FOUND 27  CATEGORIES
  INPUT SOIL TEXTURE CLASSIFICATION = STAS
  SOIL TEXTURE CLASSIFICATION = STAS FOUND 19  CATEGORIES
 *********************************************************************
 *             PROGRAM:WRF/CHEM V3.6 MODEL
 *                                                                   *
 *    PLEASE REPORT ANY BUGS TO WRF/CHEM HELP at                     *
 *                                                                   *
 *              wrfchemhelp.gsd@noaa.gov                             *
 *                                                                   *
 *********************************************************************
 WARNING: dust option 1 currently works only with the GOCART aerosol option.
 WARNING: sea salt option 1 currently works only with the GOCART aerosol option.
Timing for Writing wrfout_d01_2016-02-05_12:00:00 for domain        1:    1.21611 elapsed seconds
  mediation_integrate: med_read_wrf_chem_emissions: Open file wrfchemi_12z_d01
  HOURLY EMISSIONS UPDATE TIME         .0        .0
 mediation_integrate: med_read_wrf_chem_emissions: Read emissions for time 2016-02-05_12:00:00
 **WARNING** Time in input file not being checked **WARNING**
Timing for processing lateral boundary for domain        1:    2.92847 elapsed seconds
  Tile Strategy is not specified. Assuming 1D-Y
 WRF TILE   1 IS      1 IE     34 JS      1 JE     18
 WRF NUMBER OF TILES =   1
  photolysis_driver: called for domain  1
  *************************************
  Nesting domain
  ids,ide,jds,jde  1 307 1 241
  ims,ime,jms,jme  -4 51 -4 36
  ips,ipe,jps,jpe  1 39 1 24
  INTERMEDIATE domain
  ids,ide,jds,jde  124 231 35 120
  ims,ime,jms,jme  119 148 30 54
  ips,ipe,jps,jpe  122 138 33 44
  *************************************
 d02 2016-02-05_12:00:00  alloc_space_field: domain  3 ,  224880776  bytes allocated
 d02 2016-02-05_12:00:00  alloc_space_field: domain  3 ,  9447000  bytes allocated
 d02 2016-02-05_12:00:00 *** Initializing nest domain # 3 from an input file. ***
 d02 2016-02-05_12:00:00 med_initialdata_input: calling input_input
Timing for processing wrfinput file (stream 0) for domain        3:    5.62683 elapsed seconds
 INPUT LandUse = "USGS"
  LANDUSE TYPE = "USGS" FOUND 33  CATEGORIES 2  SEASONS WATER CATEGORY =  16  SNOW CATEGORY =  24
 INITIALIZE THREE Noah LSM RELATED TABLES
  LANDUSE TYPE = USGS FOUND 27  CATEGORIES
  INPUT SOIL TEXTURE CLASSIFICATION = STAS
  SOIL TEXTURE CLASSIFICATION = STAS FOUND 19  CATEGORIES
 *********************************************************************
 *             PROGRAM:WRF/CHEM V3.6 MODEL
 *                                                                   *
 *    PLEASE REPORT ANY BUGS TO WRF/CHEM HELP at                     *
 *                                                                   *
 *              wrfchemhelp.gsd@noaa.gov                             *
 *                                                                   *
 *********************************************************************
 WARNING: dust option 1 currently works only with the GOCART aerosol option.
 WARNING: sea salt option 1 currently works only with the GOCART aerosol option.
 INPUT LandUse = "USGS"
  LANDUSE TYPE = "USGS" FOUND 33  CATEGORIES 2  SEASONS WATER CATEGORY =  16  SNOW CATEGORY =  24
 INITIALIZE THREE Noah LSM RELATED TABLES
  LANDUSE TYPE = USGS FOUND 27  CATEGORIES
  INPUT SOIL TEXTURE CLASSIFICATION = STAS
  SOIL TEXTURE CLASSIFICATION = STAS FOUND 19  CATEGORIES
 *********************************************************************
 *             PROGRAM:WRF/CHEM V3.6 MODEL
 *                                                                   *
 *    PLEASE REPORT ANY BUGS TO WRF/CHEM HELP at                     *
 *                                                                   *
 *              wrfchemhelp.gsd@noaa.gov                             *
 *                                                                   *
 *********************************************************************
 WARNING: dust option 1 currently works only with the GOCART aerosol option.
 WARNING: sea salt option 1 currently works only with the GOCART aerosol option.
 INPUT LandUse = "USGS"
  LANDUSE TYPE = "USGS" FOUND 33  CATEGORIES 2  SEASONS WATER CATEGORY =  16  SNOW CATEGORY =  24
 INITIALIZE THREE Noah LSM RELATED TABLES
  LANDUSE TYPE = USGS FOUND 27  CATEGORIES
  INPUT SOIL TEXTURE CLASSIFICATION = STAS
  SOIL TEXTURE CLASSIFICATION = STAS FOUND 19  CATEGORIES
 *********************************************************************
 *             PROGRAM:WRF/CHEM V3.6 MODEL
 *                                                                   *
 *    PLEASE REPORT ANY BUGS TO WRF/CHEM HELP at                     *
 *                                                                   *
 *              wrfchemhelp.gsd@noaa.gov                             *
 *                                                                   *
 *********************************************************************
 WARNING: dust option 1 currently works only with the GOCART aerosol option.
 WARNING: sea salt option 1 currently works only with the GOCART aerosol option.
  *************************************
  Nesting domain
  ids,ide,jds,jde  1 217 1 388
  ims,ime,jms,jme  -4 39 -4 51
  ips,ipe,jps,jpe  1 27 1 39
  INTERMEDIATE domain
  ids,ide,jds,jde  225 302 83 217
  ims,ime,jms,jme  220 245 78 107
  ips,ipe,jps,jpe  223 235 81 97
  *************************************
 d02 2016-02-05_12:00:00  alloc_space_field: domain  4 ,  240788348  bytes allocated
 d02 2016-02-05_12:00:00  alloc_space_field: domain  4 ,  9824880  bytes allocated
 d02 2016-02-05_12:00:00 *** Initializing nest domain # 4 from an input file. ***
 d02 2016-02-05_12:00:00 med_initialdata_input: calling input_input
Timing for processing wrfinput file (stream 0) for domain        4:    7.02490 elapsed seconds
 INPUT LandUse = "USGS"
  LANDUSE TYPE = "USGS" FOUND 33  CATEGORIES 2  SEASONS WATER CATEGORY =  16  SNOW CATEGORY =  24
 INITIALIZE THREE Noah LSM RELATED TABLES
  LANDUSE TYPE = USGS FOUND 27  CATEGORIES
  INPUT SOIL TEXTURE CLASSIFICATION = STAS
  SOIL TEXTURE CLASSIFICATION = STAS FOUND 19  CATEGORIES
 *********************************************************************
 *             PROGRAM:WRF/CHEM V3.6 MODEL
 *                                                                   *
 *    PLEASE REPORT ANY BUGS TO WRF/CHEM HELP at                     *
 *                                                                   *
 *              wrfchemhelp.gsd@noaa.gov                             *
 *                                                                   *
 *********************************************************************
 WARNING: dust option 1 currently works only with the GOCART aerosol option.
 WARNING: sea salt option 1 currently works only with the GOCART aerosol option.
 INPUT LandUse = "USGS"
  LANDUSE TYPE = "USGS" FOUND 33  CATEGORIES 2  SEASONS WATER CATEGORY =  16  SNOW CATEGORY =  24
 INITIALIZE THREE Noah LSM RELATED TABLES
  LANDUSE TYPE = USGS FOUND 27  CATEGORIES
  INPUT SOIL TEXTURE CLASSIFICATION = STAS
  SOIL TEXTURE CLASSIFICATION = STAS FOUND 19  CATEGORIES
 *********************************************************************
 *             PROGRAM:WRF/CHEM V3.6 MODEL
 *                                                                   *
 *    PLEASE REPORT ANY BUGS TO WRF/CHEM HELP at                     *
 *                                                                   *
 *              wrfchemhelp.gsd@noaa.gov                             *
 *                                                                   *
 *********************************************************************
 WARNING: dust option 1 currently works only with the GOCART aerosol option.
 WARNING: sea salt option 1 currently works only with the GOCART aerosol option.
 INPUT LandUse = "USGS"
  LANDUSE TYPE = "USGS" FOUND 33  CATEGORIES 2  SEASONS WATER CATEGORY =  16  SNOW CATEGORY =  24
 INITIALIZE THREE Noah LSM RELATED TABLES
  LANDUSE TYPE = USGS FOUND 27  CATEGORIES
  INPUT SOIL TEXTURE CLASSIFICATION = STAS
  SOIL TEXTURE CLASSIFICATION = STAS FOUND 19  CATEGORIES
 *********************************************************************
 *             PROGRAM:WRF/CHEM V3.6 MODEL
 *                                                                   *
 *    PLEASE REPORT ANY BUGS TO WRF/CHEM HELP at                     *
 *                                                                   *
 *              wrfchemhelp.gsd@noaa.gov                             *
 *                                                                   *
 *********************************************************************
 WARNING: dust option 1 currently works only with the GOCART aerosol option.
 WARNING: sea salt option 1 currently works only with the GOCART aerosol option.
Timing for Writing wrfout_d02_2016-02-05_12:00:00 for domain        2:    1.87132 elapsed seconds
  mediation_integrate: med_read_wrf_chem_emissions: Open file wrfchemi_12z_d02
  HOURLY EMISSIONS UPDATE TIME         .0        .0
 mediation_integrate: med_read_wrf_chem_emissions: Read emissions for time 2016-02-05_12:00:00
 **WARNING** Time in input file not being checked **WARNING**
  Tile Strategy is not specified. Assuming 1D-Y
 WRF TILE   1 IS      1 IE     45 JS      1 JE     26
 WRF NUMBER OF TILES =   1
  photolysis_driver: called for domain  2
Timing for Writing wrfout_d03_2016-02-05_12:00:00 for domain        3:    1.58547 elapsed seconds
  mediation_integrate: med_read_wrf_chem_emissions: Open file wrfchemi_12z_d03
  HOURLY EMISSIONS UPDATE TIME         .0        .0
 mediation_integrate: med_read_wrf_chem_emissions: Read emissions for time 2016-02-05_12:00:00
 **WARNING** Time in input file not being checked **WARNING**
  Tile Strategy is not specified. Assuming 1D-Y
 WRF TILE   1 IS      1 IE     39 JS      1 JE     24
 WRF NUMBER OF TILES =   1
  photolysis_driver: called for domain  3
Timing for main: time 2016-02-05_12:00:13 on domain   3:    7.15064 elapsed seconds
Timing for main: time 2016-02-05_12:00:26 on domain   3:     .32563 elapsed seconds
Timing for main: time 2016-02-05_12:00:40 on domain   3:     .32216 elapsed seconds
Timing for Writing wrfout_d04_2016-02-05_12:00:00 for domain        4:    1.75301 elapsed seconds
  mediation_integrate: med_read_wrf_chem_emissions: Open file wrfchemi_12z_d04
  HOURLY EMISSIONS UPDATE TIME         .0        .0
 mediation_integrate: med_read_wrf_chem_emissions: Read emissions for time 2016-02-05_12:00:00
 **WARNING** Time in input file not being checked **WARNING**
  Tile Strategy is not specified. Assuming 1D-Y
 WRF TILE   1 IS      1 IE     27 JS      1 JE     39
 WRF NUMBER OF TILES =   1
  photolysis_driver: called for domain  4
Timing for main: time 2016-02-05_12:00:20 on domain   4:    7.66261 elapsed seconds
Timing for main: time 2016-02-05_12:00:40 on domain   4:     .33153 elapsed seconds
Timing for main: time 2016-02-05_12:00:40 on domain   2:   40.78023 elapsed seconds
Timing for main: time 2016-02-05_12:00:53 on domain   3:     .33073 elapsed seconds
Timing for main: time 2016-02-05_12:01:06 on domain   3:     .32016 elapsed seconds
Timing for main: time 2016-02-05_12:01:20 on domain   3:     .32104 elapsed seconds
Timing for main: time 2016-02-05_12:01:00 on domain   4:     .39943 elapsed seconds
Timing for main: time 2016-02-05_12:01:20 on domain   4:     .39098 elapsed seconds
Timing for main: time 2016-02-05_12:01:20 on domain   2:    2.74863 elapsed seconds
Timing for main: time 2016-02-05_12:01:33 on domain   3:     .33038 elapsed seconds
Timing for main: time 2016-02-05_12:01:46 on domain   3:     .32063 elapsed seconds
Timing for main: time 2016-02-05_12:02:00 on domain   3:     .32008 elapsed seconds
Timing for main: time 2016-02-05_12:01:40 on domain   4:     .40017 elapsed seconds
Timing for main: time 2016-02-05_12:02:00 on domain   4:     .38932 elapsed seconds
Timing for main: time 2016-02-05_12:02:00 on domain   2:    2.83308 elapsed seconds
Timing for main: time 2016-02-05_12:02:00 on domain   1:   64.67361 elapsed seconds
Timing for main: time 2016-02-05_12:02:13 on domain   3:     .33100 elapsed seconds
Timing for main: time 2016-02-05_12:02:26 on domain   3:     .39790 elapsed seconds
Timing for main: time 2016-02-05_12:02:40 on domain   3:     .32132 elapsed seconds
Timing for main: time 2016-02-05_12:02:20 on domain   4:     .39992 elapsed seconds
Timing for main: time 2016-02-05_12:02:40 on domain   4:     .38928 elapsed seconds
Timing for main: time 2016-02-05_12:02:40 on domain   2:    2.91376 elapsed seconds
Timing for main: time 2016-02-05_12:02:53 on domain   3:     .33179 elapsed seconds
Timing for main: time 2016-02-05_12:03:06 on domain   3:     .31917 elapsed seconds
Timing for main: time 2016-02-05_12:03:20 on domain   3:     .36623 elapsed seconds
Timing for main: time 2016-02-05_12:03:00 on domain   4:     .40008 elapsed seconds
Timing for main: time 2016-02-05_12:03:20 on domain   4:     .38959 elapsed seconds
Timing for main: time 2016-02-05_12:03:20 on domain   2:    2.88125 elapsed seconds
Timing for main: time 2016-02-05_12:03:33 on domain   3:     .33219 elapsed seconds
Timing for main: time 2016-02-05_12:03:46 on domain   3:     .31928 elapsed seconds
Timing for main: time 2016-02-05_12:04:00 on domain   3:     .31928 elapsed seconds
Timing for main: time 2016-02-05_12:03:40 on domain   4:     .39850 elapsed seconds
Timing for main: time 2016-02-05_12:04:00 on domain   4:     .39063 elapsed seconds
Timing for main: time 2016-02-05_12:04:00 on domain   2:    2.83532 elapsed seconds
Timing for main: time 2016-02-05_12:04:00 on domain   1:    9.14460 elapsed seconds
Timing for main: time 2016-02-05_12:04:13 on domain   3:     .33099 elapsed seconds
Timing for main: time 2016-02-05_12:04:26 on domain   3:     .32333 elapsed seconds
Timing for main: time 2016-02-05_12:04:40 on domain   3:     .32111 elapsed seconds
Timing for main: time 2016-02-05_12:04:20 on domain   4:     .40086 elapsed seconds
Timing for main: time 2016-02-05_12:04:40 on domain   4:     .38968 elapsed seconds
Timing for main: time 2016-02-05_12:04:40 on domain   2:    2.84070 elapsed seconds
Timing for main: time 2016-02-05_12:04:53 on domain   3:     .33168 elapsed seconds
Timing for main: time 2016-02-05_12:05:06 on domain   3:     .34909 elapsed seconds
Timing for main: time 2016-02-05_12:05:20 on domain   3:     .32040 elapsed seconds
Timing for main: time 2016-02-05_12:05:00 on domain   4:     .42271 elapsed seconds
Timing for main: time 2016-02-05_12:05:20 on domain   4:     .39524 elapsed seconds
Timing for main: time 2016-02-05_12:05:20 on domain   2:    2.91106 elapsed seconds
Timing for main: time 2016-02-05_12:05:33 on domain   3:     .33305 elapsed seconds
Timing for main: time 2016-02-05_12:05:46 on domain   3:     .31970 elapsed seconds
Timing for main: time 2016-02-05_12:06:00 on domain   3:     .32146 elapsed seconds
Timing for main: time 2016-02-05_12:05:40 on domain   4:     .40081 elapsed seconds
Timing for main: time 2016-02-05_12:06:00 on domain   4:     .39339 elapsed seconds
Timing for main: time 2016-02-05_12:06:00 on domain   2:    2.83864 elapsed seconds
Timing for main: time 2016-02-05_12:06:00 on domain   1:    9.16458 elapsed seconds
Timing for main: time 2016-02-05_12:06:13 on domain   3:     .33097 elapsed seconds
Timing for main: time 2016-02-05_12:06:26 on domain   3:     .31952 elapsed seconds
Timing for main: time 2016-02-05_12:06:40 on domain   3:     .31909 elapsed seconds
Timing for main: time 2016-02-05_12:06:20 on domain   4:     .40102 elapsed seconds
Timing for main: time 2016-02-05_12:06:40 on domain   4:     .39164 elapsed seconds
Timing for main: time 2016-02-05_12:06:40 on domain   2:    2.83958 elapsed seconds
Timing for main: time 2016-02-05_12:06:53 on domain   3:     .32981 elapsed seconds
Timing for main: time 2016-02-05_12:07:06 on domain   3:     .38082 elapsed seconds
Timing for main: time 2016-02-05_12:07:20 on domain   3:     .35802 elapsed seconds
Timing for main: time 2016-02-05_12:07:00 on domain   4:     .40097 elapsed seconds
Timing for main: time 2016-02-05_12:07:20 on domain   4:     .39001 elapsed seconds
Timing for main: time 2016-02-05_12:07:20 on domain   2:    2.93268 elapsed seconds
Timing for main: time 2016-02-05_12:07:33 on domain   3:     .33058 elapsed seconds
Timing for main: time 2016-02-05_12:07:46 on domain   3:     .31916 elapsed seconds
Timing for main: time 2016-02-05_12:08:00 on domain   3:     .32086 elapsed seconds
Timing for main: time 2016-02-05_12:07:40 on domain   4:     .40078 elapsed seconds
Timing for main: time 2016-02-05_12:08:00 on domain   4:     .39438 elapsed seconds
Timing for main: time 2016-02-05_12:08:00 on domain   2:    2.83749 elapsed seconds
Timing for main: time 2016-02-05_12:08:00 on domain   1:    9.16381 elapsed seconds
Timing for main: time 2016-02-05_12:08:13 on domain   3:     .32984 elapsed seconds
Timing for main: time 2016-02-05_12:08:26 on domain   3:     .31909 elapsed seconds
Timing for main: time 2016-02-05_12:08:40 on domain   3:     .32020 elapsed seconds
Timing for main: time 2016-02-05_12:08:20 on domain   4:     .40420 elapsed seconds
Timing for main: time 2016-02-05_12:08:40 on domain   4:     .39131 elapsed seconds
Timing for main: time 2016-02-05_12:08:40 on domain   2:    2.84175 elapsed seconds
Timing for main: time 2016-02-05_12:08:53 on domain   3:     .32981 elapsed seconds
Timing for main: time 2016-02-05_12:09:06 on domain   3:     .31915 elapsed seconds
Timing for main: time 2016-02-05_12:09:20 on domain   3:     .32103 elapsed seconds
Timing for main: time 2016-02-05_12:09:00 on domain   4:     .40117 elapsed seconds
Timing for main: time 2016-02-05_12:09:20 on domain   4:     .39167 elapsed seconds
Timing for main: time 2016-02-05_12:09:20 on domain   2:    2.83352 elapsed seconds
Timing for main: time 2016-02-05_12:09:33 on domain   3:     .32982 elapsed seconds
Timing for main: time 2016-02-05_12:09:46 on domain   3:     .32210 elapsed seconds
Timing for main: time 2016-02-05_12:10:00 on domain   3:     .32174 elapsed seconds
Timing for main: time 2016-02-05_12:09:40 on domain   4:     .40117 elapsed seconds
Timing for main: time 2016-02-05_12:10:00 on domain   4:     .40975 elapsed seconds
Timing for main: time 2016-02-05_12:10:00 on domain   2:    2.85588 elapsed seconds
Timing for main: time 2016-02-05_12:10:00 on domain   1:    9.08675 elapsed seconds
Timing for main: time 2016-02-05_12:10:13 on domain   3:     .34558 elapsed seconds
Timing for main: time 2016-02-05_12:10:26 on domain   3:     .32142 elapsed seconds
Timing for main: time 2016-02-05_12:10:40 on domain   3:     .32141 elapsed seconds
Timing for main: time 2016-02-05_12:10:20 on domain   4:     .40140 elapsed seconds
Timing for main: time 2016-02-05_12:10:40 on domain   4:     .38406 elapsed seconds
Timing for main: time 2016-02-05_12:10:40 on domain   2:    2.87981 elapsed seconds
Timing for main: time 2016-02-05_12:10:53 on domain   3:     .33027 elapsed seconds
Timing for main: time 2016-02-05_12:11:06 on domain   3:     .31983 elapsed seconds
Timing for main: time 2016-02-05_12:11:20 on domain   3:     .32146 elapsed seconds
Timing for main: time 2016-02-05_12:11:00 on domain   4:     .40190 elapsed seconds
Timing for main: time 2016-02-05_12:11:20 on domain   4:     .39197 elapsed seconds
Timing for main: time 2016-02-05_12:11:20 on domain   2:    2.83685 elapsed seconds
Timing for main: time 2016-02-05_12:11:33 on domain   3:     .33294 elapsed seconds
Timing for main: time 2016-02-05_12:11:46 on domain   3:     .32160 elapsed seconds
Timing for main: time 2016-02-05_12:12:00 on domain   3:     .32285 elapsed seconds
Timing for main: time 2016-02-05_12:11:40 on domain   4:     .40431 elapsed seconds
Timing for main: time 2016-02-05_12:12:00 on domain   4:     .39173 elapsed seconds
Timing for main: time 2016-02-05_12:12:00 on domain   2:    2.84286 elapsed seconds
Timing for main: time 2016-02-05_12:12:00 on domain   1:    9.13192 elapsed seconds
Timing for main: time 2016-02-05_12:12:13 on domain   3:     .33094 elapsed seconds
Timing for main: time 2016-02-05_12:12:26 on domain   3:     .31929 elapsed seconds
Timing for main: time 2016-02-05_12:12:40 on domain   3:     .32191 elapsed seconds
Timing for main: time 2016-02-05_12:12:20 on domain   4:     .40018 elapsed seconds
Timing for main: time 2016-02-05_12:12:40 on domain   4:     .39235 elapsed seconds
Timing for main: time 2016-02-05_12:12:40 on domain   2:    2.86227 elapsed seconds
Timing for main: time 2016-02-05_12:12:53 on domain   3:     .33016 elapsed seconds
Timing for main: time 2016-02-05_12:13:06 on domain   3:     .31967 elapsed seconds
Timing for main: time 2016-02-05_12:13:20 on domain   3:     .32138 elapsed seconds
Timing for main: time 2016-02-05_12:13:00 on domain   4:     .40155 elapsed seconds
Timing for main: time 2016-02-05_12:13:20 on domain   4:     .39069 elapsed seconds
Timing for main: time 2016-02-05_12:13:20 on domain   2:    2.83243 elapsed seconds
Timing for main: time 2016-02-05_12:13:33 on domain   3:     .33026 elapsed seconds
Timing for main: time 2016-02-05_12:13:46 on domain   3:     .31935 elapsed seconds
Timing for main: time 2016-02-05_12:14:00 on domain   3:     .32096 elapsed seconds
Timing for main: time 2016-02-05_12:13:40 on domain   4:     .40214 elapsed seconds
Timing for main: time 2016-02-05_12:14:00 on domain   4:     .39072 elapsed seconds
Timing for main: time 2016-02-05_12:14:00 on domain   2:    2.83494 elapsed seconds
Timing for main: time 2016-02-05_12:14:00 on domain   1:    9.08671 elapsed seconds
Timing for main: time 2016-02-05_12:14:13 on domain   3:     .33026 elapsed seconds
Timing for main: time 2016-02-05_12:14:26 on domain   3:     .32133 elapsed seconds
Timing for main: time 2016-02-05_12:14:40 on domain   3:     .32187 elapsed seconds
Timing for main: time 2016-02-05_12:14:20 on domain   4:     .40232 elapsed seconds
Timing for main: time 2016-02-05_12:14:40 on domain   4:     .39045 elapsed seconds
Timing for main: time 2016-02-05_12:14:40 on domain   2:    2.85731 elapsed seconds
Timing for main: time 2016-02-05_12:14:53 on domain   3:     .39766 elapsed seconds
Timing for main: time 2016-02-05_12:15:06 on domain   3:     .33365 elapsed seconds
Timing for main: time 2016-02-05_12:15:20 on domain   3:     .33636 elapsed seconds
Timing for main: time 2016-02-05_12:15:00 on domain   4:     .42467 elapsed seconds
Timing for main: time 2016-02-05_12:15:20 on domain   4:     .39066 elapsed seconds
Timing for main: time 2016-02-05_12:15:20 on domain   2:    2.99058 elapsed seconds
Timing for main: time 2016-02-05_12:15:33 on domain   3:     .33066 elapsed seconds
Timing for main: time 2016-02-05_12:15:46 on domain   3:     .32013 elapsed seconds
Timing for main: time 2016-02-05_12:16:00 on domain   3:     .31979 elapsed seconds
Timing for main: time 2016-02-05_12:15:40 on domain   4:     .40206 elapsed seconds
Timing for main: time 2016-02-05_12:16:00 on domain   4:     .39131 elapsed seconds
Timing for main: time 2016-02-05_12:16:00 on domain   2:    2.85508 elapsed seconds
Timing for main: time 2016-02-05_12:16:00 on domain   1:    9.29098 elapsed seconds
Timing for main: time 2016-02-05_12:16:13 on domain   3:     .33028 elapsed seconds
Timing for main: time 2016-02-05_12:16:26 on domain   3:     .31948 elapsed seconds
Timing for main: time 2016-02-05_12:16:40 on domain   3:     .32139 elapsed seconds
Timing for main: time 2016-02-05_12:16:20 on domain   4:     .40118 elapsed seconds
Timing for main: time 2016-02-05_12:16:40 on domain   4:     .39287 elapsed seconds
Timing for main: time 2016-02-05_12:16:40 on domain   2:    2.84178 elapsed seconds
Timing for main: time 2016-02-05_12:16:53 on domain   3:     .33169 elapsed seconds
Timing for main: time 2016-02-05_12:17:06 on domain   3:     .32019 elapsed seconds
Timing for main: time 2016-02-05_12:17:20 on domain   3:     .32181 elapsed seconds
Timing for main: time 2016-02-05_12:17:00 on domain   4:     .40182 elapsed seconds
Timing for main: time 2016-02-05_12:17:20 on domain   4:     .39118 elapsed seconds
Timing for main: time 2016-02-05_12:17:20 on domain   2:    2.83629 elapsed seconds
Timing for main: time 2016-02-05_12:17:33 on domain   3:     .33041 elapsed seconds
Timing for main: time 2016-02-05_12:17:46 on domain   3:     .31955 elapsed seconds
Timing for main: time 2016-02-05_12:18:00 on domain   3:     .32014 elapsed seconds
Timing for main: time 2016-02-05_12:17:40 on domain   4:     .40164 elapsed seconds
Timing for main: time 2016-02-05_12:18:00 on domain   4:     .39205 elapsed seconds
Timing for main: time 2016-02-05_12:18:00 on domain   2:    2.89852 elapsed seconds
Timing for main: time 2016-02-05_12:18:00 on domain   1:    9.14930 elapsed seconds
Timing for main: time 2016-02-05_12:18:13 on domain   3:     .33001 elapsed seconds
Timing for main: time 2016-02-05_12:18:26 on domain   3:     .32172 elapsed seconds
Timing for main: time 2016-02-05_12:18:40 on domain   3:     .32382 elapsed seconds
Timing for main: time 2016-02-05_12:18:20 on domain   4:     .40179 elapsed seconds
Timing for main: time 2016-02-05_12:18:40 on domain   4:     .39191 elapsed seconds
Timing for main: time 2016-02-05_12:18:40 on domain   2:    2.85056 elapsed seconds
Timing for main: time 2016-02-05_12:18:53 on domain   3:     .33047 elapsed seconds
Timing for main: time 2016-02-05_12:19:06 on domain   3:     .31979 elapsed seconds
Timing for main: time 2016-02-05_12:19:20 on domain   3:     .31990 elapsed seconds
Timing for main: time 2016-02-05_12:19:00 on domain   4:     .40147 elapsed seconds
Timing for main: time 2016-02-05_12:19:20 on domain   4:     .39042 elapsed seconds
Timing for main: time 2016-02-05_12:19:20 on domain   2:    2.83359 elapsed seconds
Timing for main: time 2016-02-05_12:19:33 on domain   3:     .39560 elapsed seconds
Timing for main: time 2016-02-05_12:19:46 on domain   3:     .31927 elapsed seconds
Timing for main: time 2016-02-05_12:20:00 on domain   3:     .31941 elapsed seconds
Timing for main: time 2016-02-05_12:19:40 on domain   4:     .40098 elapsed seconds
Timing for main: time 2016-02-05_12:20:00 on domain   4:     .40891 elapsed seconds
Timing for main: time 2016-02-05_12:20:00 on domain   2:    2.92281 elapsed seconds
Timing for main: time 2016-02-05_12:20:00 on domain   1:    9.16386 elapsed seconds
Timing for main: time 2016-02-05_12:20:13 on domain   3:     .33092 elapsed seconds
Timing for main: time 2016-02-05_12:20:26 on domain   3:     .33632 elapsed seconds
Timing for main: time 2016-02-05_12:20:40 on domain   3:     .32442 elapsed seconds
Timing for main: time 2016-02-05_12:20:20 on domain   4:     .40192 elapsed seconds
Timing for main: time 2016-02-05_12:20:40 on domain   4:     .39067 elapsed seconds
Timing for main: time 2016-02-05_12:20:40 on domain   2:    2.85994 elapsed seconds
Timing for main: time 2016-02-05_12:20:53 on domain   3:     .39090 elapsed seconds
Timing for main: time 2016-02-05_12:21:06 on domain   3:     .33279 elapsed seconds
Timing for main: time 2016-02-05_12:21:20 on domain   3:     .31997 elapsed seconds
Timing for main: time 2016-02-05_12:21:00 on domain   4:     .40224 elapsed seconds
Timing for main: time 2016-02-05_12:21:20 on domain   4:     .39090 elapsed seconds
Timing for main: time 2016-02-05_12:21:20 on domain   2:    2.92715 elapsed seconds
Timing for main: time 2016-02-05_12:21:33 on domain   3:     .33182 elapsed seconds
Timing for main: time 2016-02-05_12:21:46 on domain   3:     .31951 elapsed seconds
Timing for main: time 2016-02-05_12:22:00 on domain   3:     .32243 elapsed seconds
Timing for main: time 2016-02-05_12:21:40 on domain   4:     .40188 elapsed seconds
Timing for main: time 2016-02-05_12:22:00 on domain   4:     .39094 elapsed seconds
Timing for main: time 2016-02-05_12:22:00 on domain   2:    2.83977 elapsed seconds
Timing for main: time 2016-02-05_12:22:00 on domain   1:    9.18392 elapsed seconds
Timing for main: time 2016-02-05_12:22:13 on domain   3:     .33153 elapsed seconds
Timing for main: time 2016-02-05_12:22:26 on domain   3:     .32010 elapsed seconds
Timing for main: time 2016-02-05_12:22:40 on domain   3:     .32229 elapsed seconds
Timing for main: time 2016-02-05_12:22:20 on domain   4:     .40186 elapsed seconds
Timing for main: time 2016-02-05_12:22:40 on domain   4:     .39145 elapsed seconds
Timing for main: time 2016-02-05_12:22:40 on domain   2:    2.84436 elapsed seconds
Timing for main: time 2016-02-05_12:22:53 on domain   3:     .33034 elapsed seconds
Timing for main: time 2016-02-05_12:23:06 on domain   3:     .31894 elapsed seconds
Timing for main: time 2016-02-05_12:23:20 on domain   3:     .32065 elapsed seconds
Timing for main: time 2016-02-05_12:23:00 on domain   4:     .40381 elapsed seconds
Timing for main: time 2016-02-05_12:23:20 on domain   4:     .39108 elapsed seconds
Timing for main: time 2016-02-05_12:23:20 on domain   2:    2.83774 elapsed seconds
Timing for main: time 2016-02-05_12:23:33 on domain   3:     .33099 elapsed seconds
Timing for main: time 2016-02-05_12:23:46 on domain   3:     .31864 elapsed seconds
Timing for main: time 2016-02-05_12:24:00 on domain   3:     .32131 elapsed seconds
Timing for main: time 2016-02-05_12:23:40 on domain   4:     .40187 elapsed seconds
Timing for main: time 2016-02-05_12:24:00 on domain   4:     .39268 elapsed seconds
Timing for main: time 2016-02-05_12:24:00 on domain   2:    2.83654 elapsed seconds
Timing for main: time 2016-02-05_12:24:00 on domain   1:    9.08962 elapsed seconds
Timing for main: time 2016-02-05_12:24:13 on domain   3:     .33080 elapsed seconds
Timing for main: time 2016-02-05_12:24:26 on domain   3:     .31953 elapsed seconds
Timing for main: time 2016-02-05_12:24:40 on domain   3:     .31939 elapsed seconds
Timing for main: time 2016-02-05_12:24:20 on domain   4:     .40518 elapsed seconds
Timing for main: time 2016-02-05_12:24:40 on domain   4:     .39409 elapsed seconds
Timing for main: time 2016-02-05_12:24:40 on domain   2:    2.84559 elapsed seconds
Timing for main: time 2016-02-05_12:24:53 on domain   3:     .33190 elapsed seconds
Timing for main: time 2016-02-05_12:25:06 on domain   3:     .32327 elapsed seconds
Timing for main: time 2016-02-05_12:25:20 on domain   3:     .32158 elapsed seconds
Timing for main: time 2016-02-05_12:25:00 on domain   4:     .41976 elapsed seconds
Timing for main: time 2016-02-05_12:25:20 on domain   4:     .39270 elapsed seconds
Timing for main: time 2016-02-05_12:25:20 on domain   2:    2.86291 elapsed seconds
Timing for main: time 2016-02-05_12:25:33 on domain   3:     .34624 elapsed seconds
Timing for main: time 2016-02-05_12:25:46 on domain   3:     .32204 elapsed seconds
Timing for main: time 2016-02-05_12:26:00 on domain   3:     .31912 elapsed seconds
Timing for main: time 2016-02-05_12:25:40 on domain   4:     .40161 elapsed seconds
Timing for main: time 2016-02-05_12:26:00 on domain   4:     .39517 elapsed seconds
Timing for main: time 2016-02-05_12:26:00 on domain   2:    2.85554 elapsed seconds
Timing for main: time 2016-02-05_12:26:00 on domain   1:    9.11854 elapsed seconds
Timing for main: time 2016-02-05_12:26:13 on domain   3:     .32983 elapsed seconds
Timing for main: time 2016-02-05_12:26:26 on domain   3:     .31971 elapsed seconds
Timing for main: time 2016-02-05_12:26:40 on domain   3:     .32098 elapsed seconds
Timing for main: time 2016-02-05_12:26:20 on domain   4:     .40177 elapsed seconds
Timing for main: time 2016-02-05_12:26:40 on domain   4:     .38413 elapsed seconds
Timing for main: time 2016-02-05_12:26:40 on domain   2:    2.86105 elapsed seconds
Timing for main: time 2016-02-05_12:26:53 on domain   3:     .33072 elapsed seconds
Timing for main: time 2016-02-05_12:27:06 on domain   3:     .32066 elapsed seconds
Timing for main: time 2016-02-05_12:27:20 on domain   3:     .32023 elapsed seconds
Timing for main: time 2016-02-05_12:27:00 on domain   4:     .40340 elapsed seconds
Timing for main: time 2016-02-05_12:27:20 on domain   4:     .39068 elapsed seconds
Timing for main: time 2016-02-05_12:27:20 on domain   2:    2.83755 elapsed seconds
Timing for main: time 2016-02-05_12:27:33 on domain   3:     .33190 elapsed seconds
Timing for main: time 2016-02-05_12:27:46 on domain   3:     .32004 elapsed seconds
Timing for main: time 2016-02-05_12:28:00 on domain   3:     .32186 elapsed seconds
Timing for main: time 2016-02-05_12:27:40 on domain   4:     .40376 elapsed seconds
Timing for main: time 2016-02-05_12:28:00 on domain   4:     .39068 elapsed seconds
Timing for main: time 2016-02-05_12:28:00 on domain   2:    2.83873 elapsed seconds
Timing for main: time 2016-02-05_12:28:00 on domain   1:    9.09166 elapsed seconds
  photolysis_driver: called for domain  1
Timing for main: time 2016-02-05_12:28:13 on domain   3:     .33048 elapsed seconds
Timing for main: time 2016-02-05_12:28:26 on domain   3:     .31942 elapsed seconds
Timing for main: time 2016-02-05_12:28:40 on domain   3:     .32068 elapsed seconds
Timing for main: time 2016-02-05_12:28:20 on domain   4:     .40208 elapsed seconds
Timing for main: time 2016-02-05_12:28:40 on domain   4:     .39104 elapsed seconds
Timing for main: time 2016-02-05_12:28:40 on domain   2:    2.84197 elapsed seconds
Timing for main: time 2016-02-05_12:28:53 on domain   3:     .33352 elapsed seconds
Timing for main: time 2016-02-05_12:29:06 on domain   3:     .31958 elapsed seconds
Timing for main: time 2016-02-05_12:29:20 on domain   3:     .32566 elapsed seconds
Timing for main: time 2016-02-05_12:29:00 on domain   4:     .40204 elapsed seconds
Timing for main: time 2016-02-05_12:29:20 on domain   4:     .39261 elapsed seconds
Timing for main: time 2016-02-05_12:29:20 on domain   2:    2.84499 elapsed seconds
  photolysis_driver: called for domain  2
Timing for main: time 2016-02-05_12:29:33 on domain   3:     .33075 elapsed seconds
Timing for main: time 2016-02-05_12:29:46 on domain   3:     .31908 elapsed seconds
  photolysis_driver: called for domain  3
Timing for main: time 2016-02-05_12:30:00 on domain   3:    2.05934 elapsed seconds
Timing for main: time 2016-02-05_12:29:40 on domain   4:     .40181 elapsed seconds
  photolysis_driver: called for domain  4
Timing for main: time 2016-02-05_12:30:00 on domain   4:    2.35898 elapsed seconds
Timing for main: time 2016-02-05_12:30:00 on domain   2:    8.71947 elapsed seconds
Timing for main: time 2016-02-05_12:30:00 on domain   1:   16.27161 elapsed seconds
Timing for main: time 2016-02-05_12:30:13 on domain   3:     .66855 elapsed seconds
Timing for main: time 2016-02-05_12:30:26 on domain   3:     .31835 elapsed seconds
Timing for main: time 2016-02-05_12:30:40 on domain   3:     .33477 elapsed seconds
Timing for main: time 2016-02-05_12:30:20 on domain   4:     .78581 elapsed seconds
Timing for main: time 2016-02-05_12:30:40 on domain   4:     .38892 elapsed seconds
Timing for main: time 2016-02-05_12:30:40 on domain   2:    4.00743 elapsed seconds
Timing for main: time 2016-02-05_12:30:53 on domain   3:     .32800 elapsed seconds
Timing for main: time 2016-02-05_12:31:06 on domain   3:     .31784 elapsed seconds
Timing for main: time 2016-02-05_12:31:20 on domain   3:     .31886 elapsed seconds
Timing for main: time 2016-02-05_12:31:00 on domain   4:     .39886 elapsed seconds
Timing for main: time 2016-02-05_12:31:20 on domain   4:     .39043 elapsed seconds
Timing for main: time 2016-02-05_12:31:20 on domain   2:    2.82290 elapsed seconds
Timing for main: time 2016-02-05_12:31:33 on domain   3:     .32872 elapsed seconds
Timing for main: time 2016-02-05_12:31:46 on domain   3:     .31794 elapsed seconds
Timing for main: time 2016-02-05_12:32:00 on domain   3:     .31923 elapsed seconds
Timing for main: time 2016-02-05_12:31:40 on domain   4:     .39927 elapsed seconds
Timing for main: time 2016-02-05_12:32:00 on domain   4:     .38860 elapsed seconds
Timing for main: time 2016-02-05_12:32:00 on domain   2:    2.86315 elapsed seconds
Timing for main: time 2016-02-05_12:32:00 on domain   1:   10.57806 elapsed seconds
Timing for main: time 2016-02-05_12:32:13 on domain   3:     .33078 elapsed seconds
Timing for main: time 2016-02-05_12:32:26 on domain   3:     .31784 elapsed seconds
Timing for main: time 2016-02-05_12:32:40 on domain   3:     .31848 elapsed seconds
Timing for main: time 2016-02-05_12:32:20 on domain   4:     .39734 elapsed seconds
Timing for main: time 2016-02-05_12:32:40 on domain   4:     .38235 elapsed seconds
Timing for main: time 2016-02-05_12:32:40 on domain   2:    2.92718 elapsed seconds
Timing for main: time 2016-02-05_12:32:53 on domain   3:     .32901 elapsed seconds
Timing for main: time 2016-02-05_12:33:06 on domain   3:     .31628 elapsed seconds
Timing for main: time 2016-02-05_12:33:20 on domain   3:     .32175 elapsed seconds
Timing for main: time 2016-02-05_12:33:00 on domain   4:     .39903 elapsed seconds
Timing for main: time 2016-02-05_12:33:20 on domain   4:     .38852 elapsed seconds
Timing for main: time 2016-02-05_12:33:20 on domain   2:    2.82357 elapsed seconds
Timing for main: time 2016-02-05_12:33:33 on domain   3:     .32882 elapsed seconds
Timing for main: time 2016-02-05_12:33:46 on domain   3:     .31774 elapsed seconds
Timing for main: time 2016-02-05_12:34:00 on domain   3:     .32086 elapsed seconds
Timing for main: time 2016-02-05_12:33:40 on domain   4:     .40084 elapsed seconds
Timing for main: time 2016-02-05_12:34:00 on domain   4:     .38752 elapsed seconds
Timing for main: time 2016-02-05_12:34:00 on domain   2:    2.82181 elapsed seconds
Timing for main: time 2016-02-05_12:34:00 on domain   1:    9.12324 elapsed seconds
Timing for main: time 2016-02-05_12:34:13 on domain   3:     .32890 elapsed seconds
Timing for main: time 2016-02-05_12:34:26 on domain   3:     .31984 elapsed seconds
Timing for main: time 2016-02-05_12:34:40 on domain   3:     .31991 elapsed seconds
Timing for main: time 2016-02-05_12:34:20 on domain   4:     .39946 elapsed seconds
Timing for main: time 2016-02-05_12:34:40 on domain   4:     .39280 elapsed seconds
Timing for main: time 2016-02-05_12:34:40 on domain   2:    2.83657 elapsed seconds
Timing for main: time 2016-02-05_12:34:53 on domain   3:     .32861 elapsed seconds
Timing for main: time 2016-02-05_12:35:06 on domain   3:     .31787 elapsed seconds
Timing for main: time 2016-02-05_12:35:20 on domain   3:     .32005 elapsed seconds
Timing for main: time 2016-02-05_12:35:00 on domain   4:     .41745 elapsed seconds
Timing for main: time 2016-02-05_12:35:20 on domain   4:     .38982 elapsed seconds
Timing for main: time 2016-02-05_12:35:20 on domain   2:    2.83771 elapsed seconds
Timing for main: time 2016-02-05_12:35:33 on domain   3:     .32860 elapsed seconds
Timing for main: time 2016-02-05_12:35:46 on domain   3:     .33352 elapsed seconds
Timing for main: time 2016-02-05_12:36:00 on domain   3:     .31655 elapsed seconds
Timing for main: time 2016-02-05_12:35:40 on domain   4:     .40242 elapsed seconds
Timing for main: time 2016-02-05_12:36:00 on domain   4:     .40601 elapsed seconds
Timing for main: time 2016-02-05_12:36:00 on domain   2:    2.85617 elapsed seconds
Timing for main: time 2016-02-05_12:36:00 on domain   1:    9.10518 elapsed seconds
Timing for main: time 2016-02-05_12:36:13 on domain   3:     .33301 elapsed seconds
Timing for main: time 2016-02-05_12:36:26 on domain   3:     .31719 elapsed seconds
Timing for main: time 2016-02-05_12:36:40 on domain   3:     .31972 elapsed seconds
Timing for main: time 2016-02-05_12:36:20 on domain   4:     .39893 elapsed seconds
Timing for main: time 2016-02-05_12:36:40 on domain   4:     .38898 elapsed seconds
Timing for main: time 2016-02-05_12:36:40 on domain   2:    2.83035 elapsed seconds
Timing for main: time 2016-02-05_12:36:53 on domain   3:     .32913 elapsed seconds
Timing for main: time 2016-02-05_12:37:06 on domain   3:     .31740 elapsed seconds
Timing for main: time 2016-02-05_12:37:20 on domain   3:     .31897 elapsed seconds
Timing for main: time 2016-02-05_12:37:00 on domain   4:     .40439 elapsed seconds
Timing for main: time 2016-02-05_12:37:20 on domain   4:     .38838 elapsed seconds
Timing for main: time 2016-02-05_12:37:20 on domain   2:    2.84845 elapsed seconds
Timing for main: time 2016-02-05_12:37:33 on domain   3:     .32798 elapsed seconds
Timing for main: time 2016-02-05_12:37:46 on domain   3:     .31945 elapsed seconds
Timing for main: time 2016-02-05_12:38:00 on domain   3:     .41473 elapsed seconds
Timing for main: time 2016-02-05_12:37:40 on domain   4:     .39896 elapsed seconds
Timing for main: time 2016-02-05_12:38:00 on domain   4:     .38830 elapsed seconds
Timing for main: time 2016-02-05_12:38:00 on domain   2:    2.92861 elapsed seconds
Timing for main: time 2016-02-05_12:38:00 on domain   1:    9.17022 elapsed seconds
Timing for main: time 2016-02-05_12:38:13 on domain   3:     .32779 elapsed seconds
Timing for main: time 2016-02-05_12:38:26 on domain   3:     .31824 elapsed seconds
Timing for main: time 2016-02-05_12:38:40 on domain   3:     .31921 elapsed seconds
Timing for main: time 2016-02-05_12:38:20 on domain   4:     .39953 elapsed seconds
Timing for main: time 2016-02-05_12:38:40 on domain   4:     .38809 elapsed seconds
Timing for main: time 2016-02-05_12:38:40 on domain   2:    2.82665 elapsed seconds
Timing for main: time 2016-02-05_12:38:53 on domain   3:     .32958 elapsed seconds
Timing for main: time 2016-02-05_12:39:06 on domain   3:     .31850 elapsed seconds
Timing for main: time 2016-02-05_12:39:20 on domain   3:     .31795 elapsed seconds
Timing for main: time 2016-02-05_12:39:00 on domain   4:     .39911 elapsed seconds
Timing for main: time 2016-02-05_12:39:20 on domain   4:     .38863 elapsed seconds
Timing for main: time 2016-02-05_12:39:20 on domain   2:    2.82673 elapsed seconds
Timing for main: time 2016-02-05_12:39:33 on domain   3:     .32938 elapsed seconds
Timing for main: time 2016-02-05_12:39:46 on domain   3:     .32149 elapsed seconds
Timing for main: time 2016-02-05_12:40:00 on domain   3:     .31290 elapsed seconds
Timing for main: time 2016-02-05_12:39:40 on domain   4:     .39890 elapsed seconds
Timing for main: time 2016-02-05_12:40:00 on domain   4:     .39879 elapsed seconds
Timing for main: time 2016-02-05_12:40:00 on domain   2:    2.86027 elapsed seconds
Timing for main: time 2016-02-05_12:40:00 on domain   1:    9.07028 elapsed seconds
Timing for main: time 2016-02-05_12:40:13 on domain   3:     .32985 elapsed seconds
Timing for main: time 2016-02-05_12:40:26 on domain   3:     .31901 elapsed seconds
Timing for main: time 2016-02-05_12:40:40 on domain   3:     .31863 elapsed seconds
Timing for main: time 2016-02-05_12:40:20 on domain   4:     .40064 elapsed seconds
Timing for main: time 2016-02-05_12:40:40 on domain   4:     .38968 elapsed seconds
Timing for main: time 2016-02-05_12:40:40 on domain   2:    2.83228 elapsed seconds
Timing for main: time 2016-02-05_12:40:53 on domain   3:     .34580 elapsed seconds
Timing for main: time 2016-02-05_12:41:06 on domain   3:     .31755 elapsed seconds
Timing for main: time 2016-02-05_12:41:20 on domain   3:     .31949 elapsed seconds
Timing for main: time 2016-02-05_12:41:00 on domain   4:     .39932 elapsed seconds
Timing for main: time 2016-02-05_12:41:20 on domain   4:     .38895 elapsed seconds
Timing for main: time 2016-02-05_12:41:20 on domain   2:    2.84083 elapsed seconds
Timing for main: time 2016-02-05_12:41:33 on domain   3:     .32993 elapsed seconds
Timing for main: time 2016-02-05_12:41:46 on domain   3:     .31997 elapsed seconds
Timing for main: time 2016-02-05_12:42:00 on domain   3:     .31971 elapsed seconds
Timing for main: time 2016-02-05_12:41:40 on domain   4:     .39896 elapsed seconds
Timing for main: time 2016-02-05_12:42:00 on domain   4:     .39604 elapsed seconds
Timing for main: time 2016-02-05_12:42:00 on domain   2:    2.83323 elapsed seconds
Timing for main: time 2016-02-05_12:42:00 on domain   1:    9.07816 elapsed seconds
Timing for main: time 2016-02-05_12:42:13 on domain   3:     .32899 elapsed seconds
Timing for main: time 2016-02-05_12:42:26 on domain   3:     .31874 elapsed seconds
Timing for main: time 2016-02-05_12:42:40 on domain   3:     .34825 elapsed seconds
Timing for main: time 2016-02-05_12:42:20 on domain   4:     .40500 elapsed seconds
Timing for main: time 2016-02-05_12:42:40 on domain   4:     .38963 elapsed seconds
Timing for main: time 2016-02-05_12:42:40 on domain   2:    2.88484 elapsed seconds
Timing for main: time 2016-02-05_12:42:53 on domain   3:     .32647 elapsed seconds
Timing for main: time 2016-02-05_12:43:06 on domain   3:     .31778 elapsed seconds
Timing for main: time 2016-02-05_12:43:20 on domain   3:     .31964 elapsed seconds
Timing for main: time 2016-02-05_12:43:00 on domain   4:     .39895 elapsed seconds
Timing for main: time 2016-02-05_12:43:20 on domain   4:     .38993 elapsed seconds
Timing for main: time 2016-02-05_12:43:20 on domain   2:    2.82430 elapsed seconds
Timing for main: time 2016-02-05_12:43:33 on domain   3:     .32673 elapsed seconds
Timing for main: time 2016-02-05_12:43:46 on domain   3:     .31847 elapsed seconds
Timing for main: time 2016-02-05_12:44:00 on domain   3:     .32096 elapsed seconds
Timing for main: time 2016-02-05_12:43:40 on domain   4:     .40018 elapsed seconds
Timing for main: time 2016-02-05_12:44:00 on domain   4:     .38841 elapsed seconds
Timing for main: time 2016-02-05_12:44:00 on domain   2:    2.85519 elapsed seconds
Timing for main: time 2016-02-05_12:44:00 on domain   1:    9.15014 elapsed seconds
Timing for main: time 2016-02-05_12:44:13 on domain   3:     .33000 elapsed seconds
Timing for main: time 2016-02-05_12:44:26 on domain   3:     .31908 elapsed seconds
Timing for main: time 2016-02-05_12:44:40 on domain   3:     .31994 elapsed seconds
Timing for main: time 2016-02-05_12:44:20 on domain   4:     .39856 elapsed seconds
Timing for main: time 2016-02-05_12:44:40 on domain   4:     .39010 elapsed seconds
Timing for main: time 2016-02-05_12:44:40 on domain   2:    2.83124 elapsed seconds
Timing for main: time 2016-02-05_12:44:53 on domain   3:     .32946 elapsed seconds
Timing for main: time 2016-02-05_12:45:06 on domain   3:     .31870 elapsed seconds
Timing for main: time 2016-02-05_12:45:20 on domain   3:     .42185 elapsed seconds
Timing for main: time 2016-02-05_12:45:00 on domain   4:     .41701 elapsed seconds
Timing for main: time 2016-02-05_12:45:20 on domain   4:     .39005 elapsed seconds
Timing for main: time 2016-02-05_12:45:20 on domain   2:    2.94390 elapsed seconds
Timing for main: time 2016-02-05_12:45:33 on domain   3:     .32940 elapsed seconds
Timing for main: time 2016-02-05_12:45:46 on domain   3:     .31921 elapsed seconds
Timing for main: time 2016-02-05_12:46:00 on domain   3:     .33801 elapsed seconds
Timing for main: time 2016-02-05_12:45:40 on domain   4:     .39842 elapsed seconds
Timing for main: time 2016-02-05_12:46:00 on domain   4:     .38794 elapsed seconds
Timing for main: time 2016-02-05_12:46:00 on domain   2:    2.84037 elapsed seconds
Timing for main: time 2016-02-05_12:46:00 on domain   1:    9.16692 elapsed seconds
Timing for main: time 2016-02-05_12:46:13 on domain   3:     .32947 elapsed seconds
Timing for main: time 2016-02-05_12:46:26 on domain   3:     .31845 elapsed seconds
Timing for main: time 2016-02-05_12:46:40 on domain   3:     .32067 elapsed seconds
Timing for main: time 2016-02-05_12:46:20 on domain   4:     .39869 elapsed seconds
Timing for main: time 2016-02-05_12:46:40 on domain   4:     .39057 elapsed seconds
Timing for main: time 2016-02-05_12:46:40 on domain   2:    2.83334 elapsed seconds
Timing for main: time 2016-02-05_12:46:53 on domain   3:     .32999 elapsed seconds
Timing for main: time 2016-02-05_12:47:06 on domain   3:     .31810 elapsed seconds
Timing for main: time 2016-02-05_12:47:20 on domain   3:     .32266 elapsed seconds
Timing for main: time 2016-02-05_12:47:00 on domain   4:     .40089 elapsed seconds
Timing for main: time 2016-02-05_12:47:20 on domain   4:     .38796 elapsed seconds
Timing for main: time 2016-02-05_12:47:20 on domain   2:    2.82795 elapsed seconds
Timing for main: time 2016-02-05_12:47:33 on domain   3:     .32972 elapsed seconds
Timing for main: time 2016-02-05_12:47:46 on domain   3:     .32213 elapsed seconds
Timing for main: time 2016-02-05_12:48:00 on domain   3:     .32073 elapsed seconds
Timing for main: time 2016-02-05_12:47:40 on domain   4:     .40001 elapsed seconds
Timing for main: time 2016-02-05_12:48:00 on domain   4:     .38702 elapsed seconds
Timing for main: time 2016-02-05_12:48:00 on domain   2:    2.84794 elapsed seconds
Timing for main: time 2016-02-05_12:48:00 on domain   1:    9.08053 elapsed seconds
Timing for main: time 2016-02-05_12:48:13 on domain   3:     .32965 elapsed seconds
Timing for main: time 2016-02-05_12:48:26 on domain   3:     .31896 elapsed seconds
Timing for main: time 2016-02-05_12:48:40 on domain   3:     .32095 elapsed seconds
Timing for main: time 2016-02-05_12:48:20 on domain   4:     .39809 elapsed seconds
Timing for main: time 2016-02-05_12:48:40 on domain   4:     .38869 elapsed seconds
Timing for main: time 2016-02-05_12:48:40 on domain   2:    2.83056 elapsed seconds
Timing for main: time 2016-02-05_12:48:53 on domain   3:     .32964 elapsed seconds
Timing for main: time 2016-02-05_12:49:06 on domain   3:     .31903 elapsed seconds
Timing for main: time 2016-02-05_12:49:20 on domain   3:     .32253 elapsed seconds
Timing for main: time 2016-02-05_12:49:00 on domain   4:     .39889 elapsed seconds
Timing for main: time 2016-02-05_12:49:20 on domain   4:     .38824 elapsed seconds
Timing for main: time 2016-02-05_12:49:20 on domain   2:    2.82492 elapsed seconds
Timing for main: time 2016-02-05_12:49:33 on domain   3:     .32943 elapsed seconds
Timing for main: time 2016-02-05_12:49:46 on domain   3:     .31824 elapsed seconds
Timing for main: time 2016-02-05_12:50:00 on domain   3:     .31987 elapsed seconds
Timing for main: time 2016-02-05_12:49:40 on domain   4:     .39901 elapsed seconds
Timing for main: time 2016-02-05_12:50:00 on domain   4:     .40671 elapsed seconds
Timing for main: time 2016-02-05_12:50:00 on domain   2:    2.84387 elapsed seconds
Timing for main: time 2016-02-05_12:50:00 on domain   1:    9.05599 elapsed seconds
Timing for main: time 2016-02-05_12:50:13 on domain   3:     .32991 elapsed seconds
Timing for main: time 2016-02-05_12:50:26 on domain   3:     .31735 elapsed seconds
Timing for main: time 2016-02-05_12:50:40 on domain   3:     .32729 elapsed seconds
Timing for main: time 2016-02-05_12:50:20 on domain   4:     .39841 elapsed seconds
Timing for main: time 2016-02-05_12:50:40 on domain   4:     .38827 elapsed seconds
Timing for main: time 2016-02-05_12:50:40 on domain   2:    2.83189 elapsed seconds
Timing for main: time 2016-02-05_12:50:53 on domain   3:     .33045 elapsed seconds
Timing for main: time 2016-02-05_12:51:06 on domain   3:     .33471 elapsed seconds
Timing for main: time 2016-02-05_12:51:20 on domain   3:     .31874 elapsed seconds
Timing for main: time 2016-02-05_12:51:00 on domain   4:     .39867 elapsed seconds
Timing for main: time 2016-02-05_12:51:20 on domain   4:     .38785 elapsed seconds
Timing for main: time 2016-02-05_12:51:20 on domain   2:    2.84086 elapsed seconds
Timing for main: time 2016-02-05_12:51:33 on domain   3:     .32930 elapsed seconds
Timing for main: time 2016-02-05_12:51:46 on domain   3:     .31926 elapsed seconds
Timing for main: time 2016-02-05_12:52:00 on domain   3:     .32020 elapsed seconds
Timing for main: time 2016-02-05_12:51:40 on domain   4:     .39830 elapsed seconds
Timing for main: time 2016-02-05_12:52:00 on domain   4:     .39039 elapsed seconds
Timing for main: time 2016-02-05_12:52:00 on domain   2:    2.82717 elapsed seconds
Timing for main: time 2016-02-05_12:52:00 on domain   1:    9.05868 elapsed seconds
Timing for main: time 2016-02-05_12:52:13 on domain   3:     .32975 elapsed seconds
Timing for main: time 2016-02-05_12:52:26 on domain   3:     .31911 elapsed seconds
Timing for main: time 2016-02-05_12:52:40 on domain   3:     .31801 elapsed seconds
Timing for main: time 2016-02-05_12:52:20 on domain   4:     .39878 elapsed seconds
Timing for main: time 2016-02-05_12:52:40 on domain   4:     .38803 elapsed seconds
Timing for main: time 2016-02-05_12:52:40 on domain   2:    2.82851 elapsed seconds
Timing for main: time 2016-02-05_12:52:53 on domain   3:     .32943 elapsed seconds
Timing for main: time 2016-02-05_12:53:06 on domain   3:     .31881 elapsed seconds
Timing for main: time 2016-02-05_12:53:20 on domain   3:     .31596 elapsed seconds
Timing for main: time 2016-02-05_12:53:00 on domain   4:     .39904 elapsed seconds
Timing for main: time 2016-02-05_12:53:20 on domain   4:     .38089 elapsed seconds
Timing for main: time 2016-02-05_12:53:20 on domain   2:    2.85004 elapsed seconds
Timing for main: time 2016-02-05_12:53:33 on domain   3:     .32950 elapsed seconds
Timing for main: time 2016-02-05_12:53:46 on domain   3:     .31840 elapsed seconds
Timing for main: time 2016-02-05_12:54:00 on domain   3:     .32321 elapsed seconds
Timing for main: time 2016-02-05_12:53:40 on domain   4:     .40152 elapsed seconds
Timing for main: time 2016-02-05_12:54:00 on domain   4:     .38814 elapsed seconds
Timing for main: time 2016-02-05_12:54:00 on domain   2:    2.82792 elapsed seconds
Timing for main: time 2016-02-05_12:54:00 on domain   1:    9.07800 elapsed seconds
Timing for main: time 2016-02-05_12:54:13 on domain   3:     .32993 elapsed seconds
Timing for main: time 2016-02-05_12:54:26 on domain   3:     .31868 elapsed seconds
Timing for main: time 2016-02-05_12:54:40 on domain   3:     .32093 elapsed seconds
Timing for main: time 2016-02-05_12:54:20 on domain   4:     .39889 elapsed seconds
Timing for main: time 2016-02-05_12:54:40 on domain   4:     .38946 elapsed seconds
Timing for main: time 2016-02-05_12:54:40 on domain   2:    2.83005 elapsed seconds
Timing for main: time 2016-02-05_12:54:53 on domain   3:     .32941 elapsed seconds
Timing for main: time 2016-02-05_12:55:06 on domain   3:     .31919 elapsed seconds
Timing for main: time 2016-02-05_12:55:20 on domain   3:     .31964 elapsed seconds
Timing for main: time 2016-02-05_12:55:00 on domain   4:     .41656 elapsed seconds
Timing for main: time 2016-02-05_12:55:20 on domain   4:     .50801 elapsed seconds
Timing for main: time 2016-02-05_12:55:20 on domain   2:    2.96127 elapsed seconds
Timing for main: time 2016-02-05_12:55:33 on domain   3:     .33042 elapsed seconds
Timing for main: time 2016-02-05_12:55:46 on domain   3:     .31964 elapsed seconds
Timing for main: time 2016-02-05_12:56:00 on domain   3:     .32027 elapsed seconds
Timing for main: time 2016-02-05_12:55:40 on domain   4:     .39982 elapsed seconds
Timing for main: time 2016-02-05_12:56:00 on domain   4:     .38864 elapsed seconds
Timing for main: time 2016-02-05_12:56:00 on domain   2:    2.82570 elapsed seconds
Timing for main: time 2016-02-05_12:56:00 on domain   1:    9.17177 elapsed seconds
Timing for main: time 2016-02-05_12:56:13 on domain   3:     .34890 elapsed seconds
Timing for main: time 2016-02-05_12:56:26 on domain   3:     .31879 elapsed seconds
Timing for main: time 2016-02-05_12:56:40 on domain   3:     .32241 elapsed seconds
Timing for main: time 2016-02-05_12:56:20 on domain   4:     .39880 elapsed seconds
Timing for main: time 2016-02-05_12:56:40 on domain   4:     .38949 elapsed seconds
Timing for main: time 2016-02-05_12:56:40 on domain   2:    2.85105 elapsed seconds
Timing for main: time 2016-02-05_12:56:53 on domain   3:     .32925 elapsed seconds
Timing for main: time 2016-02-05_12:57:06 on domain   3:     .32571 elapsed seconds
Timing for main: time 2016-02-05_12:57:20 on domain   3:     .32113 elapsed seconds
Timing for main: time 2016-02-05_12:57:00 on domain   4:     .43349 elapsed seconds
Timing for main: time 2016-02-05_12:57:20 on domain   4:     .46391 elapsed seconds
Timing for main: time 2016-02-05_12:57:20 on domain   2:    2.94542 elapsed seconds
Timing for main: time 2016-02-05_12:57:33 on domain   3:     .32976 elapsed seconds
Timing for main: time 2016-02-05_12:57:46 on domain   3:     .31831 elapsed seconds
Timing for main: time 2016-02-05_12:58:00 on domain   3:     .32085 elapsed seconds
Timing for main: time 2016-02-05_12:57:40 on domain   4:     .39827 elapsed seconds
Timing for main: time 2016-02-05_12:58:00 on domain   4:     .38855 elapsed seconds
Timing for main: time 2016-02-05_12:58:00 on domain   2:    2.91501 elapsed seconds
Timing for main: time 2016-02-05_12:58:00 on domain   1:    9.26831 elapsed seconds
  photolysis_driver: called for domain  1
Timing for main: time 2016-02-05_12:58:13 on domain   3:     .33101 elapsed seconds
Timing for main: time 2016-02-05_12:58:26 on domain   3:     .31938 elapsed seconds
Timing for main: time 2016-02-05_12:58:40 on domain   3:     .31970 elapsed seconds
Timing for main: time 2016-02-05_12:58:20 on domain   4:     .39636 elapsed seconds
Timing for main: time 2016-02-05_12:58:40 on domain   4:     .38817 elapsed seconds
Timing for main: time 2016-02-05_12:58:40 on domain   2:    2.85228 elapsed seconds
Timing for main: time 2016-02-05_12:58:53 on domain   3:     .33006 elapsed seconds
Timing for main: time 2016-02-05_12:59:06 on domain   3:     .31898 elapsed seconds
Timing for main: time 2016-02-05_12:59:20 on domain   3:     .31932 elapsed seconds
Timing for main: time 2016-02-05_12:59:00 on domain   4:     .39937 elapsed seconds
Timing for main: time 2016-02-05_12:59:20 on domain   4:     .38978 elapsed seconds
Timing for main: time 2016-02-05_12:59:20 on domain   2:    2.82859 elapsed seconds
  photolysis_driver: called for domain  2
Timing for main: time 2016-02-05_12:59:33 on domain   3:     .33046 elapsed seconds
Timing for main: time 2016-02-05_12:59:46 on domain   3:     .32209 elapsed seconds
  photolysis_driver: called for domain  3
Timing for main: time 2016-02-05_13:00:00 on domain   3:    2.06128 elapsed seconds
Timing for main: time 2016-02-05_12:59:40 on domain   4:     .39909 elapsed seconds
  photolysis_driver: called for domain  4
Timing for main: time 2016-02-05_13:00:00 on domain   4:    2.36126 elapsed seconds
Timing for main: time 2016-02-05_13:00:00 on domain   2:    8.68546 elapsed seconds
Timing for main: time 2016-02-05_13:00:00 on domain   1:   16.22801 elapsed seconds
Timing for Writing wrfout_d01_2016-02-05_13:00:00 for domain        1:    1.22497 elapsed seconds
  HOURLY EMISSIONS UPDATE TIME     3600.0        .0
 mediation_integrate: med_read_wrf_chem_emissions: Read emissions for time 2016-02-05_13:00:00
 **WARNING** Time in input file not being checked **WARNING**
Timing for Writing wrfout_d02_2016-02-05_13:00:00 for domain        2:    1.89839 elapsed seconds
Timing for Writing wrfout_d03_2016-02-05_13:00:00 for domain        3:    2.40727 elapsed seconds
Timing for main: time 2016-02-05_13:00:13 on domain   3:    3.10825 elapsed seconds
Timing for main: time 2016-02-05_13:00:26 on domain   3:     .31349 elapsed seconds
Timing for main: time 2016-02-05_13:00:40 on domain   3:     .31860 elapsed seconds
Timing for Writing wrfout_d04_2016-02-05_13:00:00 for domain        4:    1.80795 elapsed seconds
Timing for main: time 2016-02-05_13:00:20 on domain   4:    2.64866 elapsed seconds
Timing for main: time 2016-02-05_13:00:40 on domain   4:     .38201 elapsed seconds
Timing for main: time 2016-02-05_13:00:40 on domain   2:   12.20544 elapsed seconds
Timing for main: time 2016-02-05_13:00:53 on domain   3:     .33001 elapsed seconds
Timing for main: time 2016-02-05_13:01:06 on domain   3:     .34133 elapsed seconds
Timing for main: time 2016-02-05_13:01:20 on domain   3:     .41810 elapsed seconds
Timing for main: time 2016-02-05_13:01:00 on domain   4:     .39866 elapsed seconds
Timing for main: time 2016-02-05_13:01:20 on domain   4:     .39041 elapsed seconds
Timing for main: time 2016-02-05_13:01:20 on domain   2:    2.94334 elapsed seconds
Timing for main: time 2016-02-05_13:01:33 on domain   3:     .33016 elapsed seconds
Timing for main: time 2016-02-05_13:01:46 on domain   3:     .31910 elapsed seconds
Timing for main: time 2016-02-05_13:02:00 on domain   3:     .32182 elapsed seconds
Timing for main: time 2016-02-05_13:01:40 on domain   4:     .40090 elapsed seconds
Timing for main: time 2016-02-05_13:02:00 on domain   4:     .38818 elapsed seconds
Timing for main: time 2016-02-05_13:02:00 on domain   2:    2.82778 elapsed seconds
Timing for main: time 2016-02-05_13:02:00 on domain   1:   20.69683 elapsed seconds
Timing for main: time 2016-02-05_13:02:13 on domain   3:     .33022 elapsed seconds
Timing for main: time 2016-02-05_13:02:26 on domain   3:     .31840 elapsed seconds
Timing for main: time 2016-02-05_13:02:40 on domain   3:     .32018 elapsed seconds
Timing for main: time 2016-02-05_13:02:20 on domain   4:     .39812 elapsed seconds
Timing for main: time 2016-02-05_13:02:40 on domain   4:     .38987 elapsed seconds
Timing for main: time 2016-02-05_13:02:40 on domain   2:    2.82874 elapsed seconds
Timing for main: time 2016-02-05_13:02:53 on domain   3:     .32967 elapsed seconds
Timing for main: time 2016-02-05_13:03:06 on domain   3:     .31943 elapsed seconds
Timing for main: time 2016-02-05_13:03:20 on domain   3:     .31996 elapsed seconds
Timing for main: time 2016-02-05_13:03:00 on domain   4:     .39847 elapsed seconds
Timing for main: time 2016-02-05_13:03:20 on domain   4:     .39005 elapsed seconds
Timing for main: time 2016-02-05_13:03:20 on domain   2:    2.82612 elapsed seconds
Timing for main: time 2016-02-05_13:03:33 on domain   3:     .33005 elapsed seconds
Timing for main: time 2016-02-05_13:03:46 on domain   3:     .31893 elapsed seconds
Timing for main: time 2016-02-05_13:04:00 on domain   3:     .31991 elapsed seconds
Timing for main: time 2016-02-05_13:03:40 on domain   4:     .39859 elapsed seconds
Timing for main: time 2016-02-05_13:04:00 on domain   4:     .38836 elapsed seconds
Timing for main: time 2016-02-05_13:04:00 on domain   2:    2.84177 elapsed seconds
Timing for main: time 2016-02-05_13:04:00 on domain   1:    9.05322 elapsed seconds
Timing for main: time 2016-02-05_13:04:13 on domain   3:     .32948 elapsed seconds
Timing for main: time 2016-02-05_13:04:26 on domain   3:     .31899 elapsed seconds
Timing for main: time 2016-02-05_13:04:40 on domain   3:     .32040 elapsed seconds
Timing for main: time 2016-02-05_13:04:20 on domain   4:     .39948 elapsed seconds
Timing for main: time 2016-02-05_13:04:40 on domain   4:     .39033 elapsed seconds
Timing for main: time 2016-02-05_13:04:40 on domain   2:    2.83546 elapsed seconds
Timing for main: time 2016-02-05_13:04:53 on domain   3:     .33327 elapsed seconds
Timing for main: time 2016-02-05_13:05:06 on domain   3:     .32010 elapsed seconds
Timing for main: time 2016-02-05_13:05:20 on domain   3:     .32010 elapsed seconds
Timing for main: time 2016-02-05_13:05:00 on domain   4:     .41778 elapsed seconds
Timing for main: time 2016-02-05_13:05:20 on domain   4:     .38823 elapsed seconds
Timing for main: time 2016-02-05_13:05:20 on domain   2:    2.86096 elapsed seconds
Timing for main: time 2016-02-05_13:05:33 on domain   3:     .33017 elapsed seconds
Timing for main: time 2016-02-05_13:05:46 on domain   3:     .31943 elapsed seconds
Timing for main: time 2016-02-05_13:06:00 on domain   3:     .32200 elapsed seconds
Timing for main: time 2016-02-05_13:05:40 on domain   4:     .39846 elapsed seconds
Timing for main: time 2016-02-05_13:06:00 on domain   4:     .38931 elapsed seconds
Timing for main: time 2016-02-05_13:06:00 on domain   2:    2.82950 elapsed seconds
Timing for main: time 2016-02-05_13:06:00 on domain   1:    9.09671 elapsed seconds
Timing for main: time 2016-02-05_13:06:13 on domain   3:     .32981 elapsed seconds
Timing for main: time 2016-02-05_13:06:26 on domain   3:     .33466 elapsed seconds
Timing for main: time 2016-02-05_13:06:40 on domain   3:     .32091 elapsed seconds
Timing for main: time 2016-02-05_13:06:20 on domain   4:     .39939 elapsed seconds
Timing for main: time 2016-02-05_13:06:40 on domain   4:     .38811 elapsed seconds
Timing for main: time 2016-02-05_13:06:40 on domain   2:    2.84652 elapsed seconds
Timing for main: time 2016-02-05_13:06:53 on domain   3:     .33125 elapsed seconds
Timing for main: time 2016-02-05_13:07:06 on domain   3:     .32052 elapsed seconds
Timing for main: time 2016-02-05_13:07:20 on domain   3:     .31999 elapsed seconds
Timing for main: time 2016-02-05_13:07:00 on domain   4:     .39875 elapsed seconds
Timing for main: time 2016-02-05_13:07:20 on domain   4:     .38800 elapsed seconds
Timing for main: time 2016-02-05_13:07:20 on domain   2:    2.82439 elapsed seconds
Timing for main: time 2016-02-05_13:07:33 on domain   3:     .33256 elapsed seconds
Timing for main: time 2016-02-05_13:07:46 on domain   3:     .32011 elapsed seconds
Timing for main: time 2016-02-05_13:08:00 on domain   3:     .32159 elapsed seconds
Timing for main: time 2016-02-05_13:07:40 on domain   4:     .39891 elapsed seconds
Timing for main: time 2016-02-05_13:08:00 on domain   4:     .38866 elapsed seconds
Timing for main: time 2016-02-05_13:08:00 on domain   2:    2.82959 elapsed seconds
Timing for main: time 2016-02-05_13:08:00 on domain   1:    9.05629 elapsed seconds
Timing for main: time 2016-02-05_13:08:13 on domain   3:     .32957 elapsed seconds
Timing for main: time 2016-02-05_13:08:26 on domain   3:     .37664 elapsed seconds
Timing for main: time 2016-02-05_13:08:40 on domain   3:     .37527 elapsed seconds
Timing for main: time 2016-02-05_13:08:20 on domain   4:     .39969 elapsed seconds
Timing for main: time 2016-02-05_13:08:40 on domain   4:     .38810 elapsed seconds
Timing for main: time 2016-02-05_13:08:40 on domain   2:    2.94096 elapsed seconds
Timing for main: time 2016-02-05_13:08:53 on domain   3:     .33010 elapsed seconds
Timing for main: time 2016-02-05_13:09:06 on domain   3:     .31982 elapsed seconds
Timing for main: time 2016-02-05_13:09:20 on domain   3:     .32184 elapsed seconds
Timing for main: time 2016-02-05_13:09:00 on domain   4:     .39851 elapsed seconds
Timing for main: time 2016-02-05_13:09:20 on domain   4:     .38805 elapsed seconds
Timing for main: time 2016-02-05_13:09:20 on domain   2:    2.84450 elapsed seconds
Timing for main: time 2016-02-05_13:09:33 on domain   3:     .32977 elapsed seconds
Timing for main: time 2016-02-05_13:09:46 on domain   3:     .31889 elapsed seconds
Timing for main: time 2016-02-05_13:10:00 on domain   3:     .31834 elapsed seconds
Timing for main: time 2016-02-05_13:09:40 on domain   4:     .39920 elapsed seconds
Timing for main: time 2016-02-05_13:10:00 on domain   4:     .40659 elapsed seconds
Timing for main: time 2016-02-05_13:10:00 on domain   2:    2.84062 elapsed seconds
Timing for main: time 2016-02-05_13:10:00 on domain   1:    9.18214 elapsed seconds
Timing for main: time 2016-02-05_13:10:13 on domain   3:     .32911 elapsed seconds
Timing for main: time 2016-02-05_13:10:26 on domain   3:     .31492 elapsed seconds
Timing for main: time 2016-02-05_13:10:40 on domain   3:     .32202 elapsed seconds
Timing for main: time 2016-02-05_13:10:20 on domain   4:     .39861 elapsed seconds
Timing for main: time 2016-02-05_13:10:40 on domain   4:     .38786 elapsed seconds
Timing for main: time 2016-02-05_13:10:40 on domain   2:    2.84309 elapsed seconds
Timing for main: time 2016-02-05_13:10:53 on domain   3:     .32982 elapsed seconds
Timing for main: time 2016-02-05_13:11:06 on domain   3:     .32204 elapsed seconds
Timing for main: time 2016-02-05_13:11:20 on domain   3:     .31982 elapsed seconds
Timing for main: time 2016-02-05_13:11:00 on domain   4:     .40053 elapsed seconds
Timing for main: time 2016-02-05_13:11:20 on domain   4:     .39002 elapsed seconds
Timing for main: time 2016-02-05_13:11:20 on domain   2:    2.83586 elapsed seconds
Timing for main: time 2016-02-05_13:11:33 on domain   3:     .34552 elapsed seconds
Timing for main: time 2016-02-05_13:11:46 on domain   3:     .31830 elapsed seconds
Timing for main: time 2016-02-05_13:12:00 on domain   3:     .31885 elapsed seconds
Timing for main: time 2016-02-05_13:11:40 on domain   4:     .39895 elapsed seconds
Timing for main: time 2016-02-05_13:12:00 on domain   4:     .38976 elapsed seconds
Timing for main: time 2016-02-05_13:12:00 on domain   2:    2.86178 elapsed seconds
Timing for main: time 2016-02-05_13:12:00 on domain   1:    9.11275 elapsed seconds
Timing for main: time 2016-02-05_13:12:13 on domain   3:     .32964 elapsed seconds
Timing for main: time 2016-02-05_13:12:26 on domain   3:     .32032 elapsed seconds
Timing for main: time 2016-02-05_13:12:40 on domain   3:     .32143 elapsed seconds
Timing for main: time 2016-02-05_13:12:20 on domain   4:     .39880 elapsed seconds
Timing for main: time 2016-02-05_13:12:40 on domain   4:     .39009 elapsed seconds
Timing for main: time 2016-02-05_13:12:40 on domain   2:    2.83279 elapsed seconds
Timing for main: time 2016-02-05_13:12:53 on domain   3:     .33000 elapsed seconds
Timing for main: time 2016-02-05_13:13:06 on domain   3:     .31885 elapsed seconds
Timing for main: time 2016-02-05_13:13:20 on domain   3:     .31895 elapsed seconds
Timing for main: time 2016-02-05_13:13:00 on domain   4:     .39902 elapsed seconds
Timing for main: time 2016-02-05_13:13:20 on domain   4:     .38725 elapsed seconds
Timing for main: time 2016-02-05_13:13:20 on domain   2:    2.82353 elapsed seconds
Timing for main: time 2016-02-05_13:13:33 on domain   3:     .33026 elapsed seconds
Timing for main: time 2016-02-05_13:13:46 on domain   3:     .31953 elapsed seconds
Timing for main: time 2016-02-05_13:14:00 on domain   3:     .32066 elapsed seconds
Timing for main: time 2016-02-05_13:13:40 on domain   4:     .39888 elapsed seconds
Timing for main: time 2016-02-05_13:14:00 on domain   4:     .38939 elapsed seconds
Timing for main: time 2016-02-05_13:14:00 on domain   2:    2.82536 elapsed seconds
Timing for main: time 2016-02-05_13:14:00 on domain   1:    9.03729 elapsed seconds
Timing for main: time 2016-02-05_13:14:13 on domain   3:     .33183 elapsed seconds
Timing for main: time 2016-02-05_13:14:26 on domain   3:     .31898 elapsed seconds
Timing for main: time 2016-02-05_13:14:40 on domain   3:     .32096 elapsed seconds
Timing for main: time 2016-02-05_13:14:20 on domain   4:     .39719 elapsed seconds
Timing for main: time 2016-02-05_13:14:40 on domain   4:     .38783 elapsed seconds
Timing for main: time 2016-02-05_13:14:40 on domain   2:    2.85367 elapsed seconds
Timing for main: time 2016-02-05_13:14:53 on domain   3:     .32926 elapsed seconds
Timing for main: time 2016-02-05_13:15:06 on domain   3:     .31880 elapsed seconds
Timing for main: time 2016-02-05_13:15:20 on domain   3:     .32387 elapsed seconds
Timing for main: time 2016-02-05_13:15:00 on domain   4:     .41665 elapsed seconds
Timing for main: time 2016-02-05_13:15:20 on domain   4:     .38964 elapsed seconds
Timing for main: time 2016-02-05_13:15:20 on domain   2:    2.84659 elapsed seconds
Timing for main: time 2016-02-05_13:15:33 on domain   3:     .33012 elapsed seconds
Timing for main: time 2016-02-05_13:15:46 on domain   3:     .32018 elapsed seconds
Timing for main: time 2016-02-05_13:16:00 on domain   3:     .32143 elapsed seconds
Timing for main: time 2016-02-05_13:15:40 on domain   4:     .39884 elapsed seconds
Timing for main: time 2016-02-05_13:16:00 on domain   4:     .39305 elapsed seconds
Timing for main: time 2016-02-05_13:16:00 on domain   2:    2.83200 elapsed seconds
Timing for main: time 2016-02-05_13:16:00 on domain   1:    9.08629 elapsed seconds
Timing for main: time 2016-02-05_13:16:13 on domain   3:     .33062 elapsed seconds
Timing for main: time 2016-02-05_13:16:26 on domain   3:     .31883 elapsed seconds
Timing for main: time 2016-02-05_13:16:40 on domain   3:     .33709 elapsed seconds
Timing for main: time 2016-02-05_13:16:20 on domain   4:     .39870 elapsed seconds
Timing for main: time 2016-02-05_13:16:40 on domain   4:     .38989 elapsed seconds
Timing for main: time 2016-02-05_13:16:40 on domain   2:    2.84718 elapsed seconds
Timing for main: time 2016-02-05_13:16:53 on domain   3:     .33011 elapsed seconds
Timing for main: time 2016-02-05_13:17:06 on domain   3:     .31846 elapsed seconds
Timing for main: time 2016-02-05_13:17:20 on domain   3:     .32286 elapsed seconds
Timing for main: time 2016-02-05_13:17:00 on domain   4:     .39879 elapsed seconds
Timing for main: time 2016-02-05_13:17:20 on domain   4:     .38985 elapsed seconds
Timing for main: time 2016-02-05_13:17:20 on domain   2:    2.82643 elapsed seconds
[...]
Timing for main: time 2016-02-05_17:36:00 on domain   2:    2.85101 elapsed seconds
Timing for main: time 2016-02-05_17:36:00 on domain   1:    9.11739 elapsed seconds
Timing for main: time 2016-02-05_17:36:13 on domain   3:     .33055 elapsed seconds
Timing for main: time 2016-02-05_17:36:26 on domain   3:     .43771 elapsed seconds
Timing for main: time 2016-02-05_17:36:40 on domain   3:     .31815 elapsed seconds
Timing for main: time 2016-02-05_17:36:20 on domain   4:     .39783 elapsed seconds
Timing for main: time 2016-02-05_17:36:40 on domain   4:     .39133 elapsed seconds
Timing for main: time 2016-02-05_17:36:40 on domain   2:    2.95072 elapsed seconds
Timing for main: time 2016-02-05_17:36:53 on domain   3:     .33099 elapsed seconds
Timing for main: time 2016-02-05_17:37:06 on domain   3:     .32731 elapsed seconds
Timing for main: time 2016-02-05_17:37:20 on domain   3:     .33652 elapsed seconds
Timing for main: time 2016-02-05_17:37:00 on domain   4:     .39808 elapsed seconds
Timing for main: time 2016-02-05_17:37:20 on domain   4:     .38999 elapsed seconds
Timing for main: time 2016-02-05_17:37:20 on domain   2:    2.85334 elapsed seconds
Timing for main: time 2016-02-05_17:37:33 on domain   3:     .33045 elapsed seconds
Timing for main: time 2016-02-05_17:37:46 on domain   3:     .32053 elapsed seconds
Timing for main: time 2016-02-05_17:38:00 on domain   3:     .32066 elapsed seconds
Timing for main: time 2016-02-05_17:37:40 on domain   4:     .39788 elapsed seconds
Timing for main: time 2016-02-05_17:38:00 on domain   4:     .38956 elapsed seconds
Timing for main: time 2016-02-05_17:38:00 on domain   2:    2.83111 elapsed seconds
Timing for main: time 2016-02-05_17:38:00 on domain   1:    9.21773 elapsed seconds
Timing for main: time 2016-02-05_17:38:13 on domain   3:     .33013 elapsed seconds
Timing for main: time 2016-02-05_17:38:26 on domain   3:     .32045 elapsed seconds
Timing for main: time 2016-02-05_17:38:40 on domain   3:     .32098 elapsed seconds
Timing for main: time 2016-02-05_17:38:20 on domain   4:     .39841 elapsed seconds
Timing for main: time 2016-02-05_17:38:40 on domain   4:     .39083 elapsed seconds
Timing for main: time 2016-02-05_17:38:40 on domain   2:    2.85685 elapsed seconds
Timing for main: time 2016-02-05_17:38:53 on domain   3:     .32987 elapsed seconds
Timing for main: time 2016-02-05_17:39:06 on domain   3:     .31976 elapsed seconds
Timing for main: time 2016-02-05_17:39:20 on domain   3:     .32281 elapsed seconds
Timing for main: time 2016-02-05_17:39:00 on domain   4:     .39817 elapsed seconds
Timing for main: time 2016-02-05_17:39:20 on domain   4:     .38928 elapsed seconds
Timing for main: time 2016-02-05_17:39:20 on domain   2:    2.82076 elapsed seconds
Timing for main: time 2016-02-05_17:39:33 on domain   3:     .33017 elapsed seconds
Timing for main: time 2016-02-05_17:39:46 on domain   3:     .31998 elapsed seconds
Timing for main: time 2016-02-05_17:40:00 on domain   3:     .32045 elapsed seconds
Timing for main: time 2016-02-05_17:39:40 on domain   4:     .39843 elapsed seconds
Timing for main: time 2016-02-05_17:40:00 on domain   4:     .40781 elapsed seconds
Timing for main: time 2016-02-05_17:40:00 on domain   2:    2.85202 elapsed seconds
Timing for main: time 2016-02-05_17:40:00 on domain   1:    9.12561 elapsed seconds
Timing for main: time 2016-02-05_17:40:13 on domain   3:     .33088 elapsed seconds
Timing for main: time 2016-02-05_17:40:26 on domain   3:     .32027 elapsed seconds
Timing for main: time 2016-02-05_17:40:40 on domain   3:     .32261 elapsed seconds
Timing for main: time 2016-02-05_17:40:20 on domain   4:     .39967 elapsed seconds
Timing for main: time 2016-02-05_17:40:40 on domain   4:     .38975 elapsed seconds
Timing for main: time 2016-02-05_17:40:40 on domain   2:    2.83721 elapsed seconds
Timing for main: time 2016-02-05_17:40:53 on domain   3:     .33057 elapsed seconds
Timing for main: time 2016-02-05_17:41:06 on domain   3:     .31958 elapsed seconds
Timing for main: time 2016-02-05_17:41:20 on domain   3:     .32162 elapsed seconds
Timing for main: time 2016-02-05_17:41:00 on domain   4:     .39888 elapsed seconds
Timing for main: time 2016-02-05_17:41:20 on domain   4:     .39223 elapsed seconds
Timing for main: time 2016-02-05_17:41:20 on domain   2:    2.85505 elapsed seconds
Timing for main: time 2016-02-05_17:41:33 on domain   3:     .33037 elapsed seconds
Timing for main: time 2016-02-05_17:41:46 on domain   3:     .31987 elapsed seconds
Timing for main: time 2016-02-05_17:42:00 on domain   3:     .32292 elapsed seconds
Timing for main: time 2016-02-05_17:41:40 on domain   4:     .39823 elapsed seconds
Timing for main: time 2016-02-05_17:42:00 on domain   4:     .37997 elapsed seconds
Timing for main: time 2016-02-05_17:42:00 on domain   2:    2.84160 elapsed seconds
Timing for main: time 2016-02-05_17:42:00 on domain   1:    9.11438 elapsed seconds
Timing for main: time 2016-02-05_17:42:13 on domain   3:     .33124 elapsed seconds
Timing for main: time 2016-02-05_17:42:26 on domain   3:     .33926 elapsed seconds
Timing for main: time 2016-02-05_17:42:40 on domain   3:     .31961 elapsed seconds
Timing for main: time 2016-02-05_17:42:20 on domain   4:     .41977 elapsed seconds
Timing for main: time 2016-02-05_17:42:40 on domain   4:     .38818 elapsed seconds
Timing for main: time 2016-02-05_17:42:40 on domain   2:    2.87343 elapsed seconds
Timing for main: time 2016-02-05_17:42:53 on domain   3:     .33054 elapsed seconds
Timing for main: time 2016-02-05_17:43:06 on domain   3:     .32033 elapsed seconds
Timing for main: time 2016-02-05_17:43:20 on domain   3:     .31992 elapsed seconds
Timing for main: time 2016-02-05_17:43:00 on domain   4:     .39903 elapsed seconds
Timing for main: time 2016-02-05_17:43:20 on domain   4:     .38909 elapsed seconds
Timing for main: time 2016-02-05_17:43:20 on domain   2:    2.83533 elapsed seconds
Timing for main: time 2016-02-05_17:43:33 on domain   3:     .33056 elapsed seconds
Timing for main: time 2016-02-05_17:43:46 on domain   3:     .32662 elapsed seconds
Timing for main: time 2016-02-05_17:44:00 on domain   3:     .41379 elapsed seconds
Timing for main: time 2016-02-05_17:43:40 on domain   4:     .39806 elapsed seconds
Timing for main: time 2016-02-05_17:44:00 on domain   4:     .39183 elapsed seconds
Timing for main: time 2016-02-05_17:44:00 on domain   2:    2.92885 elapsed seconds
Timing for main: time 2016-02-05_17:44:00 on domain   1:    9.20091 elapsed seconds
Timing for main: time 2016-02-05_17:44:13 on domain   3:     .33012 elapsed seconds
Timing for main: time 2016-02-05_17:44:26 on domain   3:     .31980 elapsed seconds
Timing for main: time 2016-02-05_17:44:40 on domain   3:     .32108 elapsed seconds
Timing for main: time 2016-02-05_17:44:20 on domain   4:     .39787 elapsed seconds
Timing for main: time 2016-02-05_17:44:40 on domain   4:     .38961 elapsed seconds
Timing for main: time 2016-02-05_17:44:40 on domain   2:    2.83197 elapsed seconds
Timing for main: time 2016-02-05_17:44:53 on domain   3:     .33035 elapsed seconds
Timing for main: time 2016-02-05_17:45:06 on domain   3:     .32022 elapsed seconds
Timing for main: time 2016-02-05_17:45:20 on domain   3:     .32102 elapsed seconds
Timing for main: time 2016-02-05_17:45:00 on domain   4:     .41457 elapsed seconds
Timing for main: time 2016-02-05_17:45:20 on domain   4:     .39091 elapsed seconds
Timing for main: time 2016-02-05_17:45:20 on domain   2:    2.85001 elapsed seconds
Timing for main: time 2016-02-05_17:45:33 on domain   3:     .33035 elapsed seconds
Timing for main: time 2016-02-05_17:45:46 on domain   3:     .32110 elapsed seconds
Timing for main: time 2016-02-05_17:46:00 on domain   3:     .32102 elapsed seconds
Timing for main: time 2016-02-05_17:45:40 on domain   4:     .39876 elapsed seconds
Timing for main: time 2016-02-05_17:46:00 on domain   4:     .39003 elapsed seconds
Timing for main: time 2016-02-05_17:46:00 on domain   2:    2.83287 elapsed seconds
Timing for main: time 2016-02-05_17:46:00 on domain   1:    9.07803 elapsed seconds
Timing for main: time 2016-02-05_17:46:13 on domain   3:     .32998 elapsed seconds
Timing for main: time 2016-02-05_17:46:26 on domain   3:     .32019 elapsed seconds
Timing for main: time 2016-02-05_17:46:40 on domain   3:     .31538 elapsed seconds
Timing for main: time 2016-02-05_17:46:20 on domain   4:     .39816 elapsed seconds
Timing for main: time 2016-02-05_17:46:40 on domain   4:     .38003 elapsed seconds
Timing for main: time 2016-02-05_17:46:40 on domain   2:    2.86673 elapsed seconds
Timing for main: time 2016-02-05_17:46:53 on domain   3:     .33172 elapsed seconds
Timing for main: time 2016-02-05_17:47:06 on domain   3:     .31989 elapsed seconds
Timing for main: time 2016-02-05_17:47:20 on domain   3:     .32132 elapsed seconds
Timing for main: time 2016-02-05_17:47:00 on domain   4:     .39782 elapsed seconds
Timing for main: time 2016-02-05_17:47:20 on domain   4:     .39087 elapsed seconds
Timing for main: time 2016-02-05_17:47:20 on domain   2:    2.83418 elapsed seconds
Timing for main: time 2016-02-05_17:47:33 on domain   3:     .34550 elapsed seconds
Timing for main: time 2016-02-05_17:47:46 on domain   3:     .32306 elapsed seconds
Timing for main: time 2016-02-05_17:48:00 on domain   3:     .32101 elapsed seconds
Timing for main: time 2016-02-05_17:47:40 on domain   4:     .39766 elapsed seconds
Timing for main: time 2016-02-05_17:48:00 on domain   4:     .38947 elapsed seconds
Timing for main: time 2016-02-05_17:48:00 on domain   2:    2.84598 elapsed seconds
Timing for main: time 2016-02-05_17:48:00 on domain   1:    9.12592 elapsed seconds
Timing for main: time 2016-02-05_17:48:13 on domain   3:     .33142 elapsed seconds
Timing for main: time 2016-02-05_17:48:26 on domain   3:     .31984 elapsed seconds
Timing for main: time 2016-02-05_17:48:40 on domain   3:     .32123 elapsed seconds
Timing for main: time 2016-02-05_17:48:20 on domain   4:     .39897 elapsed seconds
Timing for main: time 2016-02-05_17:48:40 on domain   4:     .39067 elapsed seconds
Timing for main: time 2016-02-05_17:48:40 on domain   2:    2.83558 elapsed seconds
Timing for main: time 2016-02-05_17:48:53 on domain   3:     .33655 elapsed seconds
Timing for main: time 2016-02-05_17:49:06 on domain   3:     .31979 elapsed seconds
Timing for main: time 2016-02-05_17:49:20 on domain   3:     .32132 elapsed seconds
Timing for main: time 2016-02-05_17:49:00 on domain   4:     .39911 elapsed seconds
Timing for main: time 2016-02-05_17:49:20 on domain   4:     .38912 elapsed seconds
Timing for main: time 2016-02-05_17:49:20 on domain   2:    2.83631 elapsed seconds
Timing for main: time 2016-02-05_17:49:33 on domain   3:     .32997 elapsed seconds
Timing for main: time 2016-02-05_17:49:46 on domain   3:     .31920 elapsed seconds
Timing for main: time 2016-02-05_17:50:00 on domain   3:     .31959 elapsed seconds
Timing for main: time 2016-02-05_17:49:40 on domain   4:     .39818 elapsed seconds
Timing for main: time 2016-02-05_17:50:00 on domain   4:     .40856 elapsed seconds
Timing for main: time 2016-02-05_17:50:00 on domain   2:    2.84826 elapsed seconds
Timing for main: time 2016-02-05_17:50:00 on domain   1:    9.08555 elapsed seconds
Timing for main: time 2016-02-05_17:50:13 on domain   3:     .33028 elapsed seconds
Timing for main: time 2016-02-05_17:50:26 on domain   3:     .32047 elapsed seconds
Timing for main: time 2016-02-05_17:50:40 on domain   3:     .32190 elapsed seconds
Timing for main: time 2016-02-05_17:50:20 on domain   4:     .39808 elapsed seconds
Timing for main: time 2016-02-05_17:50:40 on domain   4:     .39031 elapsed seconds
Timing for main: time 2016-02-05_17:50:40 on domain   2:    2.84911 elapsed seconds
Timing for main: time 2016-02-05_17:50:53 on domain   3:     .33061 elapsed seconds
Timing for main: time 2016-02-05_17:51:06 on domain   3:     .32017 elapsed seconds
Timing for main: time 2016-02-05_17:51:20 on domain   3:     .32205 elapsed seconds
Timing for main: time 2016-02-05_17:51:00 on domain   4:     .39757 elapsed seconds
Timing for main: time 2016-02-05_17:51:20 on domain   4:     .39010 elapsed seconds
Timing for main: time 2016-02-05_17:51:20 on domain   2:    2.82123 elapsed seconds
Timing for main: time 2016-02-05_17:51:33 on domain   3:     .33419 elapsed seconds
Timing for main: time 2016-02-05_17:51:46 on domain   3:     .32006 elapsed seconds
Timing for main: time 2016-02-05_17:52:00 on domain   3:     .31972 elapsed seconds
Timing for main: time 2016-02-05_17:51:40 on domain   4:     .39650 elapsed seconds
Timing for main: time 2016-02-05_17:52:00 on domain   4:     .38890 elapsed seconds
Timing for main: time 2016-02-05_17:52:00 on domain   2:    2.85286 elapsed seconds
Timing for main: time 2016-02-05_17:52:00 on domain   1:    9.11958 elapsed seconds
Timing for main: time 2016-02-05_17:52:13 on domain   3:     .33133 elapsed seconds
Timing for main: time 2016-02-05_17:52:26 on domain   3:     .31984 elapsed seconds
Timing for main: time 2016-02-05_17:52:40 on domain   3:     .33675 elapsed seconds
Timing for main: time 2016-02-05_17:52:20 on domain   4:     .39774 elapsed seconds
Timing for main: time 2016-02-05_17:52:40 on domain   4:     .39039 elapsed seconds
Timing for main: time 2016-02-05_17:52:40 on domain   2:    2.84970 elapsed seconds
Timing for main: time 2016-02-05_17:52:53 on domain   3:     .32990 elapsed seconds
Timing for main: time 2016-02-05_17:53:06 on domain   3:     .32067 elapsed seconds
Timing for main: time 2016-02-05_17:53:20 on domain   3:     .32029 elapsed seconds
Timing for main: time 2016-02-05_17:53:00 on domain   4:     .39895 elapsed seconds
Timing for main: time 2016-02-05_17:53:20 on domain   4:     .38913 elapsed seconds
Timing for main: time 2016-02-05_17:53:20 on domain   2:    2.83267 elapsed seconds
Timing for main: time 2016-02-05_17:53:33 on domain   3:     .32989 elapsed seconds
Timing for main: time 2016-02-05_17:53:46 on domain   3:     .31960 elapsed seconds
Timing for main: time 2016-02-05_17:54:00 on domain   3:     .32074 elapsed seconds
Timing for main: time 2016-02-05_17:53:40 on domain   4:     .40128 elapsed seconds
Timing for main: time 2016-02-05_17:54:00 on domain   4:     .44051 elapsed seconds
Timing for main: time 2016-02-05_17:54:00 on domain   2:    2.90735 elapsed seconds
Timing for main: time 2016-02-05_17:54:00 on domain   1:    9.17333 elapsed seconds
Timing for main: time 2016-02-05_17:54:13 on domain   3:     .33050 elapsed seconds
Timing for main: time 2016-02-05_17:54:26 on domain   3:     .32014 elapsed seconds
Timing for main: time 2016-02-05_17:54:40 on domain   3:     .32081 elapsed seconds
Timing for main: time 2016-02-05_17:54:20 on domain   4:     .39788 elapsed seconds
Timing for main: time 2016-02-05_17:54:40 on domain   4:     .38941 elapsed seconds
Timing for main: time 2016-02-05_17:54:40 on domain   2:    2.83208 elapsed seconds
Timing for main: time 2016-02-05_17:54:53 on domain   3:     .32973 elapsed seconds
Timing for main: time 2016-02-05_17:55:06 on domain   3:     .32037 elapsed seconds
Timing for main: time 2016-02-05_17:55:20 on domain   3:     .31969 elapsed seconds
Timing for main: time 2016-02-05_17:55:00 on domain   4:     .41633 elapsed seconds
Timing for main: time 2016-02-05_17:55:20 on domain   4:     .39026 elapsed seconds
Timing for main: time 2016-02-05_17:55:20 on domain   2:    2.84980 elapsed seconds
Timing for main: time 2016-02-05_17:55:33 on domain   3:     .32974 elapsed seconds
Timing for main: time 2016-02-05_17:55:46 on domain   3:     .31993 elapsed seconds
Timing for main: time 2016-02-05_17:56:00 on domain   3:     .32158 elapsed seconds
Timing for main: time 2016-02-05_17:55:40 on domain   4:     .39774 elapsed seconds
Timing for main: time 2016-02-05_17:56:00 on domain   4:     .39255 elapsed seconds
Timing for main: time 2016-02-05_17:56:00 on domain   2:    2.83262 elapsed seconds
Timing for main: time 2016-02-05_17:56:00 on domain   1:    9.08535 elapsed seconds
Timing for main: time 2016-02-05_17:56:13 on domain   3:     .33029 elapsed seconds
Timing for main: time 2016-02-05_17:56:26 on domain   3:     .32098 elapsed seconds
Timing for main: time 2016-02-05_17:56:40 on domain   3:     .32111 elapsed seconds
Timing for main: time 2016-02-05_17:56:20 on domain   4:     .39856 elapsed seconds
Timing for main: time 2016-02-05_17:56:40 on domain   4:     .38879 elapsed seconds
Timing for main: time 2016-02-05_17:56:40 on domain   2:    2.83443 elapsed seconds
Timing for main: time 2016-02-05_17:56:53 on domain   3:     .33035 elapsed seconds
Timing for main: time 2016-02-05_17:57:06 on domain   3:     .32019 elapsed seconds
Timing for main: time 2016-02-05_17:57:20 on domain   3:     .32105 elapsed seconds
Timing for main: time 2016-02-05_17:57:00 on domain   4:     .39847 elapsed seconds
Timing for main: time 2016-02-05_17:57:20 on domain   4:     .38998 elapsed seconds
Timing for main: time 2016-02-05_17:57:20 on domain   2:    2.85414 elapsed seconds
Timing for main: time 2016-02-05_17:57:33 on domain   3:     .32959 elapsed seconds
Timing for main: time 2016-02-05_17:57:46 on domain   3:     .33525 elapsed seconds
Timing for main: time 2016-02-05_17:58:00 on domain   3:     .32298 elapsed seconds
Timing for main: time 2016-02-05_17:57:40 on domain   4:     .39803 elapsed seconds
Timing for main: time 2016-02-05_17:58:00 on domain   4:     .39080 elapsed seconds
Timing for main: time 2016-02-05_17:58:00 on domain   2:    2.84906 elapsed seconds
Timing for main: time 2016-02-05_17:58:00 on domain   1:    9.10108 elapsed seconds
  photolysis_driver: called for domain  1
Timing for main: time 2016-02-05_17:58:13 on domain   3:     .32962 elapsed seconds
Timing for main: time 2016-02-05_17:58:26 on domain   3:     .42740 elapsed seconds
Timing for main: time 2016-02-05_17:58:40 on domain   3:     .31950 elapsed seconds
Timing for main: time 2016-02-05_17:58:20 on domain   4:     .39824 elapsed seconds
Timing for main: time 2016-02-05_17:58:40 on domain   4:     .39056 elapsed seconds
Timing for main: time 2016-02-05_17:58:40 on domain   2:    2.93926 elapsed seconds
Timing for main: time 2016-02-05_17:58:53 on domain   3:     .33017 elapsed seconds
Timing for main: time 2016-02-05_17:59:06 on domain   3:     .31995 elapsed seconds
Timing for main: time 2016-02-05_17:59:20 on domain   3:     .32132 elapsed seconds
Timing for main: time 2016-02-05_17:59:00 on domain   4:     .39858 elapsed seconds
Timing for main: time 2016-02-05_17:59:20 on domain   4:     .39119 elapsed seconds
Timing for main: time 2016-02-05_17:59:20 on domain   2:    2.83172 elapsed seconds
  photolysis_driver: called for domain  2
Timing for main: time 2016-02-05_17:59:33 on domain   3:     .32977 elapsed seconds
Timing for main: time 2016-02-05_17:59:46 on domain   3:     .32099 elapsed seconds
  photolysis_driver: called for domain  3
Timing for main: time 2016-02-05_18:00:00 on domain   3:    2.06660 elapsed seconds
Timing for Writing wrfout_d03_2016-02-05_18:00:00 for domain        3:    1.57326 elapsed seconds
Timing for main: time 2016-02-05_17:59:40 on domain   4:     .42651 elapsed seconds
  photolysis_driver: called for domain  4
Timing for main: time 2016-02-05_18:00:00 on domain   4:    2.35352 elapsed seconds
Timing for Writing wrfout_d04_2016-02-05_18:00:00 for domain        4:    1.80619 elapsed seconds
Timing for main: time 2016-02-05_18:00:00 on domain   2:   14.77841 elapsed seconds
Timing for Writing wrfout_d02_2016-02-05_18:00:00 for domain        2:    1.85930 elapsed seconds
Timing for main: time 2016-02-05_18:00:00 on domain   1:   24.10938 elapsed seconds
Timing for Writing wrfout_d01_2016-02-05_18:00:00 for domain        1:    3.18204 elapsed seconds
 d01 2016-02-05_18:00:00 wrf: SUCCESS COMPLETE WRF
