taskid: 0 hostname: p10a51.pbm.ihost.com
  Ntasks in X  13 , ntasks in Y  20
 Setting blank km_opt entries to domain #1 values.
  --> The km_opt entry in the namelist.input is now max_domains.
 Setting blank diff_opt entries to domain #1 values.
  --> The diff_opt entry in the namelist.input is now max_domains.
 --- WARNING: traj_opt is zero, but num_traj is not zero; setting num_traj to zero.
 --- NOTE: hypsometric_opt is 2, setting adjust_heights = F
 --- NOTE: sst_update is 0, setting io_form_auxinput4 = 0 and auxinput4_interval = 0 for all domains
 --- NOTE: sst_update is 0, setting io_form_auxinput4 = 0 and auxinput4_interval = 0 for all domains
 --- NOTE: sst_update is 0, setting io_form_auxinput4 = 0 and auxinput4_interval = 0 for all domains
 --- NOTE: sst_update is 0, setting io_form_auxinput4 = 0 and auxinput4_interval = 0 for all domains
 --- NOTE: grid_fdda is 0 for domain      1, setting gfdda interval and ending time to 0 for that domain.
 --- NOTE: both grid_sfdda and pxlsm_soil_nudge are 0 for domain      1, setting sgfdda interval and ending time to 0 for that domain.
 --- NOTE: obs_nudge_opt is 0 for domain      1, setting obs nudging interval and ending time to 0 for that domain.
 --- NOTE: grid_fdda is 0 for domain      2, setting gfdda interval and ending time to 0 for that domain.
 --- NOTE: both grid_sfdda and pxlsm_soil_nudge are 0 for domain      2, setting sgfdda interval and ending time to 0 for that domain.
 --- NOTE: obs_nudge_opt is 0 for domain      2, setting obs nudging interval and ending time to 0 for that domain.
 --- NOTE: grid_fdda is 0 for domain      3, setting gfdda interval and ending time to 0 for that domain.
 --- NOTE: both grid_sfdda and pxlsm_soil_nudge are 0 for domain      3, setting sgfdda interval and ending time to 0 for that domain.
 --- NOTE: obs_nudge_opt is 0 for domain      3, setting obs nudging interval and ending time to 0 for that domain.
 --- NOTE: grid_fdda is 0 for domain      4, setting gfdda interval and ending time to 0 for that domain.
 --- NOTE: both grid_sfdda and pxlsm_soil_nudge are 0 for domain      4, setting sgfdda interval and ending time to 0 for that domain.
 --- NOTE: obs_nudge_opt is 0 for domain      4, setting obs nudging interval and ending time to 0 for that domain.
 bl_pbl_physics /= 4, implies mfshconv must be 0, resetting
 --- NOTE: num_soil_layers has been set to      4
 WRF V3.6 MODEL
  *************************************
  Parent domain
  ids,ide,jds,jde  1 271 1 181
  ims,ime,jms,jme  -4 28 -4 16
  ips,ipe,jps,jpe  1 21 1 9
  *************************************
 DYNAMICS OPTION: Eulerian Mass Coordinate
    alloc_space_field: domain  1 ,  71602936  bytes allocated
   med_initialdata_input: calling input_input
Timing for processing wrfinput file (stream 0) for domain        1:    3.92352 elapsed seconds
 INPUT LandUse = "USGS"
  LANDUSE TYPE = "USGS" FOUND 33  CATEGORIES 2  SEASONS WATER CATEGORY =  16  SNOW CATEGORY =  24
 INITIALIZE THREE Noah LSM RELATED TABLES
  LANDUSE TYPE = USGS FOUND 27  CATEGORIES
  INPUT SOIL TEXTURE CLASSIFICATION = STAS
  SOIL TEXTURE CLASSIFICATION = STAS FOUND 19  CATEGORIES
 *********************************************************************
 *             PROGRAM:WRF/CHEM V3.6 MODEL
 *                                                                   *
 *    PLEASE REPORT ANY BUGS TO WRF/CHEM HELP at                     *
 *                                                                   *
 *              wrfchemhelp.gsd@noaa.gov                             *
 *                                                                   *
 *********************************************************************
 WARNING: dust option 1 currently works only with the GOCART aerosol option.
 WARNING: sea salt option 1 currently works only with the GOCART aerosol option.
  *************************************
  Nesting domain
  ids,ide,jds,jde  1 361 1 253
  ims,ime,jms,jme  -4 39 -4 24
  ips,ipe,jps,jpe  1 28 1 13
  INTERMEDIATE domain
  ids,ide,jds,jde  74 199 47 136
  ims,ime,jms,jme  69 94 42 62
  ips,ipe,jps,jpe  72 84 45 52
  *************************************
 d01 2016-02-05_12:00:00  alloc_space_field: domain  2 ,  127831996  bytes allocated
 d01 2016-02-05_12:00:00 *** Initializing nest domain # 2 from an input file. ***
 d01 2016-02-05_12:00:00 med_initialdata_input: calling input_input
Timing for processing wrfinput file (stream 0) for domain        2:    6.45327 elapsed seconds
 INPUT LandUse = "USGS"
  LANDUSE TYPE = "USGS" FOUND 33  CATEGORIES 2  SEASONS WATER CATEGORY =  16  SNOW CATEGORY =  24
 INITIALIZE THREE Noah LSM RELATED TABLES
  LANDUSE TYPE = USGS FOUND 27  CATEGORIES
  INPUT SOIL TEXTURE CLASSIFICATION = STAS
  SOIL TEXTURE CLASSIFICATION = STAS FOUND 19  CATEGORIES
 *********************************************************************
 *             PROGRAM:WRF/CHEM V3.6 MODEL
 *                                                                   *
 *    PLEASE REPORT ANY BUGS TO WRF/CHEM HELP at                     *
 *                                                                   *
 *              wrfchemhelp.gsd@noaa.gov                             *
 *                                                                   *
 *********************************************************************
 WARNING: dust option 1 currently works only with the GOCART aerosol option.
 WARNING: sea salt option 1 currently works only with the GOCART aerosol option.
 INPUT LandUse = "USGS"
  LANDUSE TYPE = "USGS" FOUND 33  CATEGORIES 2  SEASONS WATER CATEGORY =  16  SNOW CATEGORY =  24
 INITIALIZE THREE Noah LSM RELATED TABLES
  LANDUSE TYPE = USGS FOUND 27  CATEGORIES
  INPUT SOIL TEXTURE CLASSIFICATION = STAS
  SOIL TEXTURE CLASSIFICATION = STAS FOUND 19  CATEGORIES
 *********************************************************************
 *             PROGRAM:WRF/CHEM V3.6 MODEL
 *                                                                   *
 *    PLEASE REPORT ANY BUGS TO WRF/CHEM HELP at                     *
 *                                                                   *
 *              wrfchemhelp.gsd@noaa.gov                             *
 *                                                                   *
 *********************************************************************
 WARNING: dust option 1 currently works only with the GOCART aerosol option.
 WARNING: sea salt option 1 currently works only with the GOCART aerosol option.
 INPUT LandUse = "USGS"
  LANDUSE TYPE = "USGS" FOUND 33  CATEGORIES 2  SEASONS WATER CATEGORY =  16  SNOW CATEGORY =  24
 INITIALIZE THREE Noah LSM RELATED TABLES
  LANDUSE TYPE = USGS FOUND 27  CATEGORIES
  INPUT SOIL TEXTURE CLASSIFICATION = STAS
  SOIL TEXTURE CLASSIFICATION = STAS FOUND 19  CATEGORIES
 *********************************************************************
 *             PROGRAM:WRF/CHEM V3.6 MODEL
 *                                                                   *
 *    PLEASE REPORT ANY BUGS TO WRF/CHEM HELP at                     *
 *                                                                   *
 *              wrfchemhelp.gsd@noaa.gov                             *
 *                                                                   *
 *********************************************************************
 WARNING: dust option 1 currently works only with the GOCART aerosol option.
 WARNING: sea salt option 1 currently works only with the GOCART aerosol option.
Timing for Writing wrfout_d01_2016-02-05_12:00:00 for domain        1:    1.76928 elapsed seconds
  mediation_integrate: med_read_wrf_chem_emissions: Open file wrfchemi_12z_d01
  HOURLY EMISSIONS UPDATE TIME         .0        .0
 mediation_integrate: med_read_wrf_chem_emissions: Read emissions for time 2016-02-05_12:00:00
 **WARNING** Time in input file not being checked **WARNING**
Timing for processing lateral boundary for domain        1:    3.21983 elapsed seconds
  Tile Strategy is not specified. Assuming 1D-Y
 WRF TILE   1 IS      1 IE     21 JS      1 JE      9
 WRF NUMBER OF TILES =   1
  photolysis_driver: called for domain  1
  *************************************
  Nesting domain
  ids,ide,jds,jde  1 307 1 241
  ims,ime,jms,jme  -4 36 -4 24
  ips,ipe,jps,jpe  1 24 1 12
  INTERMEDIATE domain
  ids,ide,jds,jde  124 231 35 120
  ims,ime,jms,jme  119 143 30 50
  ips,ipe,jps,jpe  122 133 33 40
  *************************************
 d02 2016-02-05_12:00:00  alloc_space_field: domain  3 ,  119365092  bytes allocated
 d02 2016-02-05_12:00:00  alloc_space_field: domain  3 ,  6612900  bytes allocated
 d02 2016-02-05_12:00:00 *** Initializing nest domain # 3 from an input file. ***
 d02 2016-02-05_12:00:00 med_initialdata_input: calling input_input
Timing for processing wrfinput file (stream 0) for domain        3:    5.07963 elapsed seconds
 INPUT LandUse = "USGS"
  LANDUSE TYPE = "USGS" FOUND 33  CATEGORIES 2  SEASONS WATER CATEGORY =  16  SNOW CATEGORY =  24
 INITIALIZE THREE Noah LSM RELATED TABLES
  LANDUSE TYPE = USGS FOUND 27  CATEGORIES
  INPUT SOIL TEXTURE CLASSIFICATION = STAS
  SOIL TEXTURE CLASSIFICATION = STAS FOUND 19  CATEGORIES
 *********************************************************************
 *             PROGRAM:WRF/CHEM V3.6 MODEL
 *                                                                   *
 *    PLEASE REPORT ANY BUGS TO WRF/CHEM HELP at                     *
 *                                                                   *
 *              wrfchemhelp.gsd@noaa.gov                             *
 *                                                                   *
 *********************************************************************
 WARNING: dust option 1 currently works only with the GOCART aerosol option.
 WARNING: sea salt option 1 currently works only with the GOCART aerosol option.
 INPUT LandUse = "USGS"
  LANDUSE TYPE = "USGS" FOUND 33  CATEGORIES 2  SEASONS WATER CATEGORY =  16  SNOW CATEGORY =  24
 INITIALIZE THREE Noah LSM RELATED TABLES
  LANDUSE TYPE = USGS FOUND 27  CATEGORIES
  INPUT SOIL TEXTURE CLASSIFICATION = STAS
  SOIL TEXTURE CLASSIFICATION = STAS FOUND 19  CATEGORIES
 *********************************************************************
 *             PROGRAM:WRF/CHEM V3.6 MODEL
 *                                                                   *
 *    PLEASE REPORT ANY BUGS TO WRF/CHEM HELP at                     *
 *                                                                   *
 *              wrfchemhelp.gsd@noaa.gov                             *
 *                                                                   *
 *********************************************************************
 WARNING: dust option 1 currently works only with the GOCART aerosol option.
 WARNING: sea salt option 1 currently works only with the GOCART aerosol option.
 INPUT LandUse = "USGS"
  LANDUSE TYPE = "USGS" FOUND 33  CATEGORIES 2  SEASONS WATER CATEGORY =  16  SNOW CATEGORY =  24
 INITIALIZE THREE Noah LSM RELATED TABLES
  LANDUSE TYPE = USGS FOUND 27  CATEGORIES
  INPUT SOIL TEXTURE CLASSIFICATION = STAS
  SOIL TEXTURE CLASSIFICATION = STAS FOUND 19  CATEGORIES
 *********************************************************************
 *             PROGRAM:WRF/CHEM V3.6 MODEL
 *                                                                   *
 *    PLEASE REPORT ANY BUGS TO WRF/CHEM HELP at                     *
 *                                                                   *
 *              wrfchemhelp.gsd@noaa.gov                             *
 *                                                                   *
 *********************************************************************
 WARNING: dust option 1 currently works only with the GOCART aerosol option.
 WARNING: sea salt option 1 currently works only with the GOCART aerosol option.
  *************************************
  Nesting domain
  ids,ide,jds,jde  1 217 1 388
  ims,ime,jms,jme  -4 27 -4 30
  ips,ipe,jps,jpe  1 17 1 20
  INTERMEDIATE domain
  ids,ide,jds,jde  225 302 83 217
  ims,ime,jms,jme  220 242 78 101
  ips,ipe,jps,jpe  223 232 81 91
  *************************************
 d02 2016-02-05_12:00:00  alloc_space_field: domain  4 ,  112707920  bytes allocated
 d02 2016-02-05_12:00:00  alloc_space_field: domain  4 ,  6952992  bytes allocated
 d02 2016-02-05_12:00:00 *** Initializing nest domain # 4 from an input file. ***
 d02 2016-02-05_12:00:00 med_initialdata_input: calling input_input
Timing for processing wrfinput file (stream 0) for domain        4:    6.13393 elapsed seconds
 INPUT LandUse = "USGS"
  LANDUSE TYPE = "USGS" FOUND 33  CATEGORIES 2  SEASONS WATER CATEGORY =  16  SNOW CATEGORY =  24
 INITIALIZE THREE Noah LSM RELATED TABLES
  LANDUSE TYPE = USGS FOUND 27  CATEGORIES
  INPUT SOIL TEXTURE CLASSIFICATION = STAS
  SOIL TEXTURE CLASSIFICATION = STAS FOUND 19  CATEGORIES
 *********************************************************************
 *             PROGRAM:WRF/CHEM V3.6 MODEL
 *                                                                   *
 *    PLEASE REPORT ANY BUGS TO WRF/CHEM HELP at                     *
 *                                                                   *
 *              wrfchemhelp.gsd@noaa.gov                             *
 *                                                                   *
 *********************************************************************
 WARNING: dust option 1 currently works only with the GOCART aerosol option.
 WARNING: sea salt option 1 currently works only with the GOCART aerosol option.
 INPUT LandUse = "USGS"
  LANDUSE TYPE = "USGS" FOUND 33  CATEGORIES 2  SEASONS WATER CATEGORY =  16  SNOW CATEGORY =  24
 INITIALIZE THREE Noah LSM RELATED TABLES
  LANDUSE TYPE = USGS FOUND 27  CATEGORIES
  INPUT SOIL TEXTURE CLASSIFICATION = STAS
  SOIL TEXTURE CLASSIFICATION = STAS FOUND 19  CATEGORIES
 *********************************************************************
 *             PROGRAM:WRF/CHEM V3.6 MODEL
 *                                                                   *
 *    PLEASE REPORT ANY BUGS TO WRF/CHEM HELP at                     *
 *                                                                   *
 *              wrfchemhelp.gsd@noaa.gov                             *
 *                                                                   *
 *********************************************************************
 WARNING: dust option 1 currently works only with the GOCART aerosol option.
 WARNING: sea salt option 1 currently works only with the GOCART aerosol option.
 INPUT LandUse = "USGS"
  LANDUSE TYPE = "USGS" FOUND 33  CATEGORIES 2  SEASONS WATER CATEGORY =  16  SNOW CATEGORY =  24
 INITIALIZE THREE Noah LSM RELATED TABLES
  LANDUSE TYPE = USGS FOUND 27  CATEGORIES
  INPUT SOIL TEXTURE CLASSIFICATION = STAS
  SOIL TEXTURE CLASSIFICATION = STAS FOUND 19  CATEGORIES
 *********************************************************************
 *             PROGRAM:WRF/CHEM V3.6 MODEL
 *                                                                   *
 *    PLEASE REPORT ANY BUGS TO WRF/CHEM HELP at                     *
 *                                                                   *
 *              wrfchemhelp.gsd@noaa.gov                             *
 *                                                                   *
 *********************************************************************
 WARNING: dust option 1 currently works only with the GOCART aerosol option.
 WARNING: sea salt option 1 currently works only with the GOCART aerosol option.
Timing for Writing wrfout_d02_2016-02-05_12:00:00 for domain        2:    2.22443 elapsed seconds
  mediation_integrate: med_read_wrf_chem_emissions: Open file wrfchemi_12z_d02
  HOURLY EMISSIONS UPDATE TIME         .0        .0
 mediation_integrate: med_read_wrf_chem_emissions: Read emissions for time 2016-02-05_12:00:00
 **WARNING** Time in input file not being checked **WARNING**
  Tile Strategy is not specified. Assuming 1D-Y
 WRF TILE   1 IS      1 IE     28 JS      1 JE     13
 WRF NUMBER OF TILES =   1
  photolysis_driver: called for domain  2
Timing for Writing wrfout_d03_2016-02-05_12:00:00 for domain        3:    2.00646 elapsed seconds
  mediation_integrate: med_read_wrf_chem_emissions: Open file wrfchemi_12z_d03
  HOURLY EMISSIONS UPDATE TIME         .0        .0
 mediation_integrate: med_read_wrf_chem_emissions: Read emissions for time 2016-02-05_12:00:00
 **WARNING** Time in input file not being checked **WARNING**
  Tile Strategy is not specified. Assuming 1D-Y
 WRF TILE   1 IS      1 IE     24 JS      1 JE     12
 WRF NUMBER OF TILES =   1
  photolysis_driver: called for domain  3
Timing for main: time 2016-02-05_12:00:13 on domain   3:    4.61559 elapsed seconds
Timing for main: time 2016-02-05_12:00:26 on domain   3:     .19910 elapsed seconds
Timing for main: time 2016-02-05_12:00:40 on domain   3:     .12664 elapsed seconds
Timing for Writing wrfout_d04_2016-02-05_12:00:00 for domain        4:    2.14988 elapsed seconds
  mediation_integrate: med_read_wrf_chem_emissions: Open file wrfchemi_12z_d04
  HOURLY EMISSIONS UPDATE TIME         .0        .0
 mediation_integrate: med_read_wrf_chem_emissions: Read emissions for time 2016-02-05_12:00:00
 **WARNING** Time in input file not being checked **WARNING**
  Tile Strategy is not specified. Assuming 1D-Y
 WRF TILE   1 IS      1 IE     17 JS      1 JE     20
 WRF NUMBER OF TILES =   1
  photolysis_driver: called for domain  4
Timing for main: time 2016-02-05_12:00:20 on domain   4:    5.04245 elapsed seconds
Timing for main: time 2016-02-05_12:00:40 on domain   4:     .17617 elapsed seconds
Timing for main: time 2016-02-05_12:00:40 on domain   2:   28.74565 elapsed seconds
Timing for main: time 2016-02-05_12:00:53 on domain   3:     .13796 elapsed seconds
Timing for main: time 2016-02-05_12:01:06 on domain   3:     .13769 elapsed seconds
Timing for main: time 2016-02-05_12:01:20 on domain   3:     .12866 elapsed seconds
Timing for main: time 2016-02-05_12:01:00 on domain   4:     .15757 elapsed seconds
Timing for main: time 2016-02-05_12:01:20 on domain   4:     .14836 elapsed seconds
Timing for main: time 2016-02-05_12:01:20 on domain   2:    1.27945 elapsed seconds
Timing for main: time 2016-02-05_12:01:33 on domain   3:     .13987 elapsed seconds
Timing for main: time 2016-02-05_12:01:46 on domain   3:     .14322 elapsed seconds
Timing for main: time 2016-02-05_12:02:00 on domain   3:     .13180 elapsed seconds
Timing for main: time 2016-02-05_12:01:40 on domain   4:     .16183 elapsed seconds
Timing for main: time 2016-02-05_12:02:00 on domain   4:     .16081 elapsed seconds
Timing for main: time 2016-02-05_12:02:00 on domain   2:    1.32863 elapsed seconds
Timing for main: time 2016-02-05_12:02:00 on domain   1:   47.10184 elapsed seconds
Timing for main: time 2016-02-05_12:02:13 on domain   3:     .13931 elapsed seconds
Timing for main: time 2016-02-05_12:02:26 on domain   3:     .12693 elapsed seconds
Timing for main: time 2016-02-05_12:02:40 on domain   3:     .12006 elapsed seconds
Timing for main: time 2016-02-05_12:02:20 on domain   4:     .15586 elapsed seconds
Timing for main: time 2016-02-05_12:02:40 on domain   4:     .15016 elapsed seconds
Timing for main: time 2016-02-05_12:02:40 on domain   2:    1.27261 elapsed seconds
Timing for main: time 2016-02-05_12:02:53 on domain   3:     .13825 elapsed seconds
Timing for main: time 2016-02-05_12:03:06 on domain   3:     .12826 elapsed seconds
Timing for main: time 2016-02-05_12:03:20 on domain   3:     .12432 elapsed seconds
Timing for main: time 2016-02-05_12:03:00 on domain   4:     .15715 elapsed seconds
Timing for main: time 2016-02-05_12:03:20 on domain   4:     .15313 elapsed seconds
Timing for main: time 2016-02-05_12:03:20 on domain   2:    1.26757 elapsed seconds
Timing for main: time 2016-02-05_12:03:33 on domain   3:     .13770 elapsed seconds
Timing for main: time 2016-02-05_12:03:46 on domain   3:     .12715 elapsed seconds
Timing for main: time 2016-02-05_12:04:00 on domain   3:     .13354 elapsed seconds
Timing for main: time 2016-02-05_12:03:40 on domain   4:     .15349 elapsed seconds
Timing for main: time 2016-02-05_12:04:00 on domain   4:     .15243 elapsed seconds
Timing for main: time 2016-02-05_12:04:00 on domain   2:    1.27379 elapsed seconds
Timing for main: time 2016-02-05_12:04:00 on domain   1:    4.09132 elapsed seconds
Timing for main: time 2016-02-05_12:04:13 on domain   3:     .13465 elapsed seconds
Timing for main: time 2016-02-05_12:04:26 on domain   3:     .12288 elapsed seconds
Timing for main: time 2016-02-05_12:04:40 on domain   3:     .12146 elapsed seconds
Timing for main: time 2016-02-05_12:04:20 on domain   4:     .15069 elapsed seconds
Timing for main: time 2016-02-05_12:04:40 on domain   4:     .14319 elapsed seconds
Timing for main: time 2016-02-05_12:04:40 on domain   2:    1.24768 elapsed seconds
Timing for main: time 2016-02-05_12:04:53 on domain   3:     .13366 elapsed seconds
Timing for main: time 2016-02-05_12:05:06 on domain   3:     .12444 elapsed seconds
Timing for main: time 2016-02-05_12:05:20 on domain   3:     .11971 elapsed seconds
Timing for main: time 2016-02-05_12:05:00 on domain   4:     .15701 elapsed seconds
Timing for main: time 2016-02-05_12:05:20 on domain   4:     .14381 elapsed seconds
Timing for main: time 2016-02-05_12:05:20 on domain   2:    1.24898 elapsed seconds
Timing for main: time 2016-02-05_12:05:33 on domain   3:     .13431 elapsed seconds
Timing for main: time 2016-02-05_12:05:46 on domain   3:     .11949 elapsed seconds
Timing for main: time 2016-02-05_12:06:00 on domain   3:     .12053 elapsed seconds
Timing for main: time 2016-02-05_12:05:40 on domain   4:     .15125 elapsed seconds
Timing for main: time 2016-02-05_12:06:00 on domain   4:     .14314 elapsed seconds
Timing for main: time 2016-02-05_12:06:00 on domain   2:    1.23321 elapsed seconds
Timing for main: time 2016-02-05_12:06:00 on domain   1:    4.01297 elapsed seconds
Timing for main: time 2016-02-05_12:06:13 on domain   3:     .13447 elapsed seconds
Timing for main: time 2016-02-05_12:06:26 on domain   3:     .11970 elapsed seconds
Timing for main: time 2016-02-05_12:06:40 on domain   3:     .11985 elapsed seconds
Timing for main: time 2016-02-05_12:06:20 on domain   4:     .15125 elapsed seconds
Timing for main: time 2016-02-05_12:06:40 on domain   4:     .14979 elapsed seconds
Timing for main: time 2016-02-05_12:06:40 on domain   2:    1.24263 elapsed seconds
Timing for main: time 2016-02-05_12:06:53 on domain   3:     .13371 elapsed seconds
Timing for main: time 2016-02-05_12:07:06 on domain   3:     .11954 elapsed seconds
Timing for main: time 2016-02-05_12:07:20 on domain   3:     .12101 elapsed seconds
Timing for main: time 2016-02-05_12:07:00 on domain   4:     .15223 elapsed seconds
Timing for main: time 2016-02-05_12:07:20 on domain   4:     .14442 elapsed seconds
Timing for main: time 2016-02-05_12:07:20 on domain   2:    1.23460 elapsed seconds
Timing for main: time 2016-02-05_12:07:33 on domain   3:     .13500 elapsed seconds
Timing for main: time 2016-02-05_12:07:46 on domain   3:     .12024 elapsed seconds
Timing for main: time 2016-02-05_12:08:00 on domain   3:     .11977 elapsed seconds
Timing for main: time 2016-02-05_12:07:40 on domain   4:     .15135 elapsed seconds
Timing for main: time 2016-02-05_12:08:00 on domain   4:     .14290 elapsed seconds
Timing for main: time 2016-02-05_12:08:00 on domain   2:    1.23382 elapsed seconds
Timing for main: time 2016-02-05_12:08:00 on domain   1:    3.98460 elapsed seconds
Timing for main: time 2016-02-05_12:08:13 on domain   3:     .13367 elapsed seconds
Timing for main: time 2016-02-05_12:08:26 on domain   3:     .12010 elapsed seconds
Timing for main: time 2016-02-05_12:08:40 on domain   3:     .12019 elapsed seconds
Timing for main: time 2016-02-05_12:08:20 on domain   4:     .15086 elapsed seconds
Timing for main: time 2016-02-05_12:08:40 on domain   4:     .14383 elapsed seconds
Timing for main: time 2016-02-05_12:08:40 on domain   2:    1.23552 elapsed seconds
Timing for main: time 2016-02-05_12:08:53 on domain   3:     .13340 elapsed seconds
Timing for main: time 2016-02-05_12:09:06 on domain   3:     .11983 elapsed seconds
Timing for main: time 2016-02-05_12:09:20 on domain   3:     .12078 elapsed seconds
Timing for main: time 2016-02-05_12:09:00 on domain   4:     .15134 elapsed seconds
Timing for main: time 2016-02-05_12:09:20 on domain   4:     .14281 elapsed seconds
Timing for main: time 2016-02-05_12:09:20 on domain   2:    1.23313 elapsed seconds
Timing for main: time 2016-02-05_12:09:33 on domain   3:     .13381 elapsed seconds
Timing for main: time 2016-02-05_12:09:46 on domain   3:     .11973 elapsed seconds
Timing for main: time 2016-02-05_12:10:00 on domain   3:     .11978 elapsed seconds
Timing for main: time 2016-02-05_12:09:40 on domain   4:     .15100 elapsed seconds
Timing for main: time 2016-02-05_12:10:00 on domain   4:     .14942 elapsed seconds
Timing for main: time 2016-02-05_12:10:00 on domain   2:    1.23871 elapsed seconds
Timing for main: time 2016-02-05_12:10:00 on domain   1:    3.98114 elapsed seconds
Timing for main: time 2016-02-05_12:10:13 on domain   3:     .13935 elapsed seconds
Timing for main: time 2016-02-05_12:10:26 on domain   3:     .11947 elapsed seconds
Timing for main: time 2016-02-05_12:10:40 on domain   3:     .12245 elapsed seconds
Timing for main: time 2016-02-05_12:10:20 on domain   4:     .18056 elapsed seconds
Timing for main: time 2016-02-05_12:10:40 on domain   4:     .18849 elapsed seconds
Timing for main: time 2016-02-05_12:10:40 on domain   2:    1.35879 elapsed seconds
Timing for main: time 2016-02-05_12:10:53 on domain   3:     .13331 elapsed seconds
Timing for main: time 2016-02-05_12:11:06 on domain   3:     .11982 elapsed seconds
Timing for main: time 2016-02-05_12:11:20 on domain   3:     .11961 elapsed seconds
Timing for main: time 2016-02-05_12:11:00 on domain   4:     .15310 elapsed seconds
Timing for main: time 2016-02-05_12:11:20 on domain   4:     .14404 elapsed seconds
Timing for main: time 2016-02-05_12:11:20 on domain   2:    1.23479 elapsed seconds
Timing for main: time 2016-02-05_12:11:33 on domain   3:     .13531 elapsed seconds
Timing for main: time 2016-02-05_12:11:46 on domain   3:     .11959 elapsed seconds
Timing for main: time 2016-02-05_12:12:00 on domain   3:     .12115 elapsed seconds
Timing for main: time 2016-02-05_12:11:40 on domain   4:     .15096 elapsed seconds
Timing for main: time 2016-02-05_12:12:00 on domain   4:     .14336 elapsed seconds
Timing for main: time 2016-02-05_12:12:00 on domain   2:    1.23610 elapsed seconds
Timing for main: time 2016-02-05_12:12:00 on domain   1:    4.10939 elapsed seconds
Timing for main: time 2016-02-05_12:12:13 on domain   3:     .13355 elapsed seconds
Timing for main: time 2016-02-05_12:12:26 on domain   3:     .11923 elapsed seconds
Timing for main: time 2016-02-05_12:12:40 on domain   3:     .11958 elapsed seconds
Timing for main: time 2016-02-05_12:12:20 on domain   4:     .15110 elapsed seconds
Timing for main: time 2016-02-05_12:12:40 on domain   4:     .14351 elapsed seconds
Timing for main: time 2016-02-05_12:12:40 on domain   2:    1.23528 elapsed seconds
Timing for main: time 2016-02-05_12:12:53 on domain   3:     .13354 elapsed seconds
Timing for main: time 2016-02-05_12:13:06 on domain   3:     .12211 elapsed seconds
Timing for main: time 2016-02-05_12:13:20 on domain   3:     .11960 elapsed seconds
Timing for main: time 2016-02-05_12:13:00 on domain   4:     .15689 elapsed seconds
Timing for main: time 2016-02-05_12:13:20 on domain   4:     .15318 elapsed seconds
Timing for main: time 2016-02-05_12:13:20 on domain   2:    1.27465 elapsed seconds
Timing for main: time 2016-02-05_12:13:33 on domain   3:     .13378 elapsed seconds
Timing for main: time 2016-02-05_12:13:46 on domain   3:     .11930 elapsed seconds
Timing for main: time 2016-02-05_12:14:00 on domain   3:     .11973 elapsed seconds
Timing for main: time 2016-02-05_12:13:40 on domain   4:     .15180 elapsed seconds
Timing for main: time 2016-02-05_12:14:00 on domain   4:     .14587 elapsed seconds
Timing for main: time 2016-02-05_12:14:00 on domain   2:    1.33096 elapsed seconds
Timing for main: time 2016-02-05_12:14:00 on domain   1:    4.11770 elapsed seconds
Timing for main: time 2016-02-05_12:14:13 on domain   3:     .13742 elapsed seconds
Timing for main: time 2016-02-05_12:14:26 on domain   3:     .11809 elapsed seconds
Timing for main: time 2016-02-05_12:14:40 on domain   3:     .11976 elapsed seconds
Timing for main: time 2016-02-05_12:14:20 on domain   4:     .15068 elapsed seconds
Timing for main: time 2016-02-05_12:14:40 on domain   4:     .14327 elapsed seconds
Timing for main: time 2016-02-05_12:14:40 on domain   2:    1.23686 elapsed seconds
Timing for main: time 2016-02-05_12:14:53 on domain   3:     .13392 elapsed seconds
Timing for main: time 2016-02-05_12:15:06 on domain   3:     .11962 elapsed seconds
Timing for main: time 2016-02-05_12:15:20 on domain   3:     .12854 elapsed seconds
Timing for main: time 2016-02-05_12:15:00 on domain   4:     .15729 elapsed seconds
Timing for main: time 2016-02-05_12:15:20 on domain   4:     .14317 elapsed seconds
Timing for main: time 2016-02-05_12:15:20 on domain   2:    1.24740 elapsed seconds
Timing for main: time 2016-02-05_12:15:33 on domain   3:     .13789 elapsed seconds
Timing for main: time 2016-02-05_12:15:46 on domain   3:     .13088 elapsed seconds
Timing for main: time 2016-02-05_12:16:00 on domain   3:     .11987 elapsed seconds
Timing for main: time 2016-02-05_12:15:40 on domain   4:     .15060 elapsed seconds
Timing for main: time 2016-02-05_12:16:00 on domain   4:     .14394 elapsed seconds
Timing for main: time 2016-02-05_12:16:00 on domain   2:    1.26194 elapsed seconds
Timing for main: time 2016-02-05_12:16:00 on domain   1:    4.02023 elapsed seconds
Timing for main: time 2016-02-05_12:16:13 on domain   3:     .13353 elapsed seconds
Timing for main: time 2016-02-05_12:16:26 on domain   3:     .11976 elapsed seconds
Timing for main: time 2016-02-05_12:16:40 on domain   3:     .11988 elapsed seconds
Timing for main: time 2016-02-05_12:16:20 on domain   4:     .15331 elapsed seconds
Timing for main: time 2016-02-05_12:16:40 on domain   4:     .14307 elapsed seconds
Timing for main: time 2016-02-05_12:16:40 on domain   2:    1.23950 elapsed seconds
Timing for main: time 2016-02-05_12:16:53 on domain   3:     .13465 elapsed seconds
Timing for main: time 2016-02-05_12:17:06 on domain   3:     .11967 elapsed seconds
Timing for main: time 2016-02-05_12:17:20 on domain   3:     .11952 elapsed seconds
Timing for main: time 2016-02-05_12:17:00 on domain   4:     .16045 elapsed seconds
Timing for main: time 2016-02-05_12:17:20 on domain   4:     .14292 elapsed seconds
Timing for main: time 2016-02-05_12:17:20 on domain   2:    1.24664 elapsed seconds
Timing for main: time 2016-02-05_12:17:33 on domain   3:     .13372 elapsed seconds
Timing for main: time 2016-02-05_12:17:46 on domain   3:     .11967 elapsed seconds
Timing for main: time 2016-02-05_12:18:00 on domain   3:     .11975 elapsed seconds
Timing for main: time 2016-02-05_12:17:40 on domain   4:     .15176 elapsed seconds
Timing for main: time 2016-02-05_12:18:00 on domain   4:     .14241 elapsed seconds
Timing for main: time 2016-02-05_12:18:00 on domain   2:    1.23099 elapsed seconds
Timing for main: time 2016-02-05_12:18:00 on domain   1:    3.99640 elapsed seconds
Timing for main: time 2016-02-05_12:18:13 on domain   3:     .13354 elapsed seconds
Timing for main: time 2016-02-05_12:18:26 on domain   3:     .11973 elapsed seconds
Timing for main: time 2016-02-05_12:18:40 on domain   3:     .11948 elapsed seconds
Timing for main: time 2016-02-05_12:18:20 on domain   4:     .15099 elapsed seconds
Timing for main: time 2016-02-05_12:18:40 on domain   4:     .14442 elapsed seconds
Timing for main: time 2016-02-05_12:18:40 on domain   2:    1.23559 elapsed seconds
Timing for main: time 2016-02-05_12:18:53 on domain   3:     .13449 elapsed seconds
Timing for main: time 2016-02-05_12:19:06 on domain   3:     .11959 elapsed seconds
Timing for main: time 2016-02-05_12:19:20 on domain   3:     .11947 elapsed seconds
Timing for main: time 2016-02-05_12:19:00 on domain   4:     .14895 elapsed seconds
Timing for main: time 2016-02-05_12:19:20 on domain   4:     .14396 elapsed seconds
Timing for main: time 2016-02-05_12:19:20 on domain   2:    1.24083 elapsed seconds
Timing for main: time 2016-02-05_12:19:33 on domain   3:     .13770 elapsed seconds
Timing for main: time 2016-02-05_12:19:46 on domain   3:     .11958 elapsed seconds
Timing for main: time 2016-02-05_12:20:00 on domain   3:     .11952 elapsed seconds
Timing for main: time 2016-02-05_12:19:40 on domain   4:     .15094 elapsed seconds
Timing for main: time 2016-02-05_12:20:00 on domain   4:     .14907 elapsed seconds
Timing for main: time 2016-02-05_12:20:00 on domain   2:    1.23985 elapsed seconds
Timing for main: time 2016-02-05_12:20:00 on domain   1:    3.99047 elapsed seconds
Timing for main: time 2016-02-05_12:20:13 on domain   3:     .13387 elapsed seconds
Timing for main: time 2016-02-05_12:20:26 on domain   3:     .12429 elapsed seconds
Timing for main: time 2016-02-05_12:20:40 on domain   3:     .11976 elapsed seconds
Timing for main: time 2016-02-05_12:20:20 on domain   4:     .15122 elapsed seconds
Timing for main: time 2016-02-05_12:20:40 on domain   4:     .14334 elapsed seconds
Timing for main: time 2016-02-05_12:20:40 on domain   2:    1.23971 elapsed seconds
Timing for main: time 2016-02-05_12:20:53 on domain   3:     .13366 elapsed seconds
Timing for main: time 2016-02-05_12:21:06 on domain   3:     .11954 elapsed seconds
Timing for main: time 2016-02-05_12:21:20 on domain   3:     .11961 elapsed seconds
Timing for main: time 2016-02-05_12:21:00 on domain   4:     .15087 elapsed seconds
Timing for main: time 2016-02-05_12:21:20 on domain   4:     .14272 elapsed seconds
Timing for main: time 2016-02-05_12:21:20 on domain   2:    1.23750 elapsed seconds
Timing for main: time 2016-02-05_12:21:33 on domain   3:     .13392 elapsed seconds
Timing for main: time 2016-02-05_12:21:46 on domain   3:     .11942 elapsed seconds
Timing for main: time 2016-02-05_12:22:00 on domain   3:     .12194 elapsed seconds
Timing for main: time 2016-02-05_12:21:40 on domain   4:     .15096 elapsed seconds
Timing for main: time 2016-02-05_12:22:00 on domain   4:     .14513 elapsed seconds
Timing for main: time 2016-02-05_12:22:00 on domain   2:    1.23539 elapsed seconds
Timing for main: time 2016-02-05_12:22:00 on domain   1:    3.98622 elapsed seconds
Timing for main: time 2016-02-05_12:22:13 on domain   3:     .13365 elapsed seconds
Timing for main: time 2016-02-05_12:22:26 on domain   3:     .11938 elapsed seconds
Timing for main: time 2016-02-05_12:22:40 on domain   3:     .11950 elapsed seconds
Timing for main: time 2016-02-05_12:22:20 on domain   4:     .15076 elapsed seconds
Timing for main: time 2016-02-05_12:22:40 on domain   4:     .14326 elapsed seconds
Timing for main: time 2016-02-05_12:22:40 on domain   2:    1.23386 elapsed seconds
Timing for main: time 2016-02-05_12:22:53 on domain   3:     .13499 elapsed seconds
Timing for main: time 2016-02-05_12:23:06 on domain   3:     .11998 elapsed seconds
Timing for main: time 2016-02-05_12:23:20 on domain   3:     .11946 elapsed seconds
Timing for main: time 2016-02-05_12:23:00 on domain   4:     .15109 elapsed seconds
Timing for main: time 2016-02-05_12:23:20 on domain   4:     .14402 elapsed seconds
Timing for main: time 2016-02-05_12:23:20 on domain   2:    1.23401 elapsed seconds
Timing for main: time 2016-02-05_12:23:33 on domain   3:     .13365 elapsed seconds
Timing for main: time 2016-02-05_12:23:46 on domain   3:     .11950 elapsed seconds
Timing for main: time 2016-02-05_12:24:00 on domain   3:     .11916 elapsed seconds
Timing for main: time 2016-02-05_12:23:40 on domain   4:     .15083 elapsed seconds
Timing for main: time 2016-02-05_12:24:00 on domain   4:     .14340 elapsed seconds
Timing for main: time 2016-02-05_12:24:00 on domain   2:    1.23484 elapsed seconds
Timing for main: time 2016-02-05_12:24:00 on domain   1:    3.98177 elapsed seconds
Timing for main: time 2016-02-05_12:24:13 on domain   3:     .13440 elapsed seconds
Timing for main: time 2016-02-05_12:24:26 on domain   3:     .12123 elapsed seconds
Timing for main: time 2016-02-05_12:24:40 on domain   3:     .11971 elapsed seconds
Timing for main: time 2016-02-05_12:24:20 on domain   4:     .15056 elapsed seconds
Timing for main: time 2016-02-05_12:24:40 on domain   4:     .14370 elapsed seconds
Timing for main: time 2016-02-05_12:24:40 on domain   2:    1.23679 elapsed seconds
Timing for main: time 2016-02-05_12:24:53 on domain   3:     .13380 elapsed seconds
Timing for main: time 2016-02-05_12:25:06 on domain   3:     .11904 elapsed seconds
Timing for main: time 2016-02-05_12:25:20 on domain   3:     .11890 elapsed seconds
Timing for main: time 2016-02-05_12:25:00 on domain   4:     .15745 elapsed seconds
Timing for main: time 2016-02-05_12:25:20 on domain   4:     .14294 elapsed seconds
Timing for main: time 2016-02-05_12:25:20 on domain   2:    1.23627 elapsed seconds
Timing for main: time 2016-02-05_12:25:33 on domain   3:     .13886 elapsed seconds
Timing for main: time 2016-02-05_12:25:46 on domain   3:     .12109 elapsed seconds
Timing for main: time 2016-02-05_12:26:00 on domain   3:     .13312 elapsed seconds
Timing for main: time 2016-02-05_12:25:40 on domain   4:     .15014 elapsed seconds
Timing for main: time 2016-02-05_12:26:00 on domain   4:     .14356 elapsed seconds
Timing for main: time 2016-02-05_12:26:00 on domain   2:    1.29508 elapsed seconds
Timing for main: time 2016-02-05_12:26:00 on domain   1:    4.04496 elapsed seconds
Timing for main: time 2016-02-05_12:26:13 on domain   3:     .13549 elapsed seconds
Timing for main: time 2016-02-05_12:26:26 on domain   3:     .13040 elapsed seconds
Timing for main: time 2016-02-05_12:26:40 on domain   3:     .11932 elapsed seconds
Timing for main: time 2016-02-05_12:26:20 on domain   4:     .15322 elapsed seconds
Timing for main: time 2016-02-05_12:26:40 on domain   4:     .14312 elapsed seconds
Timing for main: time 2016-02-05_12:26:40 on domain   2:    1.25415 elapsed seconds
Timing for main: time 2016-02-05_12:26:53 on domain   3:     .13496 elapsed seconds
Timing for main: time 2016-02-05_12:27:06 on domain   3:     .11941 elapsed seconds
Timing for main: time 2016-02-05_12:27:20 on domain   3:     .11961 elapsed seconds
Timing for main: time 2016-02-05_12:27:00 on domain   4:     .15532 elapsed seconds
Timing for main: time 2016-02-05_12:27:20 on domain   4:     .17684 elapsed seconds
Timing for main: time 2016-02-05_12:27:20 on domain   2:    1.27012 elapsed seconds
Timing for main: time 2016-02-05_12:27:33 on domain   3:     .13367 elapsed seconds
Timing for main: time 2016-02-05_12:27:46 on domain   3:     .11880 elapsed seconds
Timing for main: time 2016-02-05_12:28:00 on domain   3:     .12033 elapsed seconds
Timing for main: time 2016-02-05_12:27:40 on domain   4:     .15787 elapsed seconds
Timing for main: time 2016-02-05_12:28:00 on domain   4:     .14381 elapsed seconds
Timing for main: time 2016-02-05_12:28:00 on domain   2:    1.26070 elapsed seconds
Timing for main: time 2016-02-05_12:28:00 on domain   1:    4.05913 elapsed seconds
  photolysis_driver: called for domain  1
Timing for main: time 2016-02-05_12:28:13 on domain   3:     .13361 elapsed seconds
Timing for main: time 2016-02-05_12:28:26 on domain   3:     .11926 elapsed seconds
Timing for main: time 2016-02-05_12:28:40 on domain   3:     .11925 elapsed seconds
Timing for main: time 2016-02-05_12:28:20 on domain   4:     .15014 elapsed seconds
Timing for main: time 2016-02-05_12:28:40 on domain   4:     .14345 elapsed seconds
Timing for main: time 2016-02-05_12:28:40 on domain   2:    1.23220 elapsed seconds
Timing for main: time 2016-02-05_12:28:53 on domain   3:     .13481 elapsed seconds
Timing for main: time 2016-02-05_12:29:06 on domain   3:     .12014 elapsed seconds
Timing for main: time 2016-02-05_12:29:20 on domain   3:     .12466 elapsed seconds
Timing for main: time 2016-02-05_12:29:00 on domain   4:     .15080 elapsed seconds
Timing for main: time 2016-02-05_12:29:20 on domain   4:     .14357 elapsed seconds
Timing for main: time 2016-02-05_12:29:20 on domain   2:    1.23852 elapsed seconds
  photolysis_driver: called for domain  2
Timing for main: time 2016-02-05_12:29:33 on domain   3:     .13422 elapsed seconds
Timing for main: time 2016-02-05_12:29:46 on domain   3:     .12061 elapsed seconds
  photolysis_driver: called for domain  3
Timing for main: time 2016-02-05_12:30:00 on domain   3:     .65801 elapsed seconds
Timing for main: time 2016-02-05_12:29:40 on domain   4:     .15042 elapsed seconds
  photolysis_driver: called for domain  4
Timing for main: time 2016-02-05_12:30:00 on domain   4:     .78047 elapsed seconds
Timing for main: time 2016-02-05_12:30:00 on domain   2:    3.08535 elapsed seconds
Timing for main: time 2016-02-05_12:30:00 on domain   1:    6.23124 elapsed seconds
Timing for main: time 2016-02-05_12:30:13 on domain   3:     .24114 elapsed seconds
Timing for main: time 2016-02-05_12:30:26 on domain   3:     .11830 elapsed seconds
Timing for main: time 2016-02-05_12:30:40 on domain   3:     .12552 elapsed seconds
Timing for main: time 2016-02-05_12:30:20 on domain   4:     .27734 elapsed seconds
Timing for main: time 2016-02-05_12:30:40 on domain   4:     .14281 elapsed seconds
Timing for main: time 2016-02-05_12:30:40 on domain   2:    1.61029 elapsed seconds
Timing for main: time 2016-02-05_12:30:53 on domain   3:     .13305 elapsed seconds
Timing for main: time 2016-02-05_12:31:06 on domain   3:     .11806 elapsed seconds
Timing for main: time 2016-02-05_12:31:20 on domain   3:     .11823 elapsed seconds
Timing for main: time 2016-02-05_12:31:00 on domain   4:     .15024 elapsed seconds
Timing for main: time 2016-02-05_12:31:20 on domain   4:     .14273 elapsed seconds
Timing for main: time 2016-02-05_12:31:20 on domain   2:    1.23043 elapsed seconds
Timing for main: time 2016-02-05_12:31:33 on domain   3:     .13281 elapsed seconds
Timing for main: time 2016-02-05_12:31:46 on domain   3:     .11875 elapsed seconds
Timing for main: time 2016-02-05_12:32:00 on domain   3:     .11940 elapsed seconds
Timing for main: time 2016-02-05_12:31:40 on domain   4:     .15017 elapsed seconds
Timing for main: time 2016-02-05_12:32:00 on domain   4:     .14303 elapsed seconds
Timing for main: time 2016-02-05_12:32:00 on domain   2:    1.23356 elapsed seconds
Timing for main: time 2016-02-05_12:32:00 on domain   1:    4.44194 elapsed seconds
Timing for main: time 2016-02-05_12:32:13 on domain   3:     .13629 elapsed seconds
Timing for main: time 2016-02-05_12:32:26 on domain   3:     .11828 elapsed seconds
Timing for main: time 2016-02-05_12:32:40 on domain   3:     .12033 elapsed seconds
Timing for main: time 2016-02-05_12:32:20 on domain   4:     .15702 elapsed seconds
Timing for main: time 2016-02-05_12:32:40 on domain   4:     .14280 elapsed seconds
Timing for main: time 2016-02-05_12:32:40 on domain   2:    1.23977 elapsed seconds
Timing for main: time 2016-02-05_12:32:53 on domain   3:     .13461 elapsed seconds
Timing for main: time 2016-02-05_12:33:06 on domain   3:     .11882 elapsed seconds
Timing for main: time 2016-02-05_12:33:20 on domain   3:     .11804 elapsed seconds
Timing for main: time 2016-02-05_12:33:00 on domain   4:     .15067 elapsed seconds
Timing for main: time 2016-02-05_12:33:20 on domain   4:     .14237 elapsed seconds
Timing for main: time 2016-02-05_12:33:20 on domain   2:    1.23910 elapsed seconds
Timing for main: time 2016-02-05_12:33:33 on domain   3:     .13312 elapsed seconds
Timing for main: time 2016-02-05_12:33:46 on domain   3:     .11818 elapsed seconds
Timing for main: time 2016-02-05_12:34:00 on domain   3:     .11817 elapsed seconds
Timing for main: time 2016-02-05_12:33:40 on domain   4:     .15102 elapsed seconds
Timing for main: time 2016-02-05_12:34:00 on domain   4:     .14179 elapsed seconds
Timing for main: time 2016-02-05_12:34:00 on domain   2:    1.22514 elapsed seconds
Timing for main: time 2016-02-05_12:34:00 on domain   1:    3.97824 elapsed seconds
Timing for main: time 2016-02-05_12:34:13 on domain   3:     .13319 elapsed seconds
Timing for main: time 2016-02-05_12:34:26 on domain   3:     .11970 elapsed seconds
Timing for main: time 2016-02-05_12:34:40 on domain   3:     .11822 elapsed seconds
Timing for main: time 2016-02-05_12:34:20 on domain   4:     .14989 elapsed seconds
Timing for main: time 2016-02-05_12:34:40 on domain   4:     .14251 elapsed seconds
Timing for main: time 2016-02-05_12:34:40 on domain   2:    1.23647 elapsed seconds
Timing for main: time 2016-02-05_12:34:53 on domain   3:     .13271 elapsed seconds
Timing for main: time 2016-02-05_12:35:06 on domain   3:     .11871 elapsed seconds
Timing for main: time 2016-02-05_12:35:20 on domain   3:     .11913 elapsed seconds
Timing for main: time 2016-02-05_12:35:00 on domain   4:     .18079 elapsed seconds
Timing for main: time 2016-02-05_12:35:20 on domain   4:     .19547 elapsed seconds
Timing for main: time 2016-02-05_12:35:20 on domain   2:    1.31046 elapsed seconds
Timing for main: time 2016-02-05_12:35:33 on domain   3:     .14703 elapsed seconds
Timing for main: time 2016-02-05_12:35:46 on domain   3:     .13083 elapsed seconds
Timing for main: time 2016-02-05_12:36:00 on domain   3:     .12050 elapsed seconds
Timing for main: time 2016-02-05_12:35:40 on domain   4:     .16949 elapsed seconds
Timing for main: time 2016-02-05_12:36:00 on domain   4:     .18228 elapsed seconds
Timing for main: time 2016-02-05_12:36:00 on domain   2:    1.33349 elapsed seconds
Timing for main: time 2016-02-05_12:36:00 on domain   1:    4.15944 elapsed seconds
Timing for main: time 2016-02-05_12:36:13 on domain   3:     .14263 elapsed seconds
Timing for main: time 2016-02-05_12:36:26 on domain   3:     .11847 elapsed seconds
Timing for main: time 2016-02-05_12:36:40 on domain   3:     .11870 elapsed seconds
Timing for main: time 2016-02-05_12:36:20 on domain   4:     .14984 elapsed seconds
Timing for main: time 2016-02-05_12:36:40 on domain   4:     .14614 elapsed seconds
Timing for main: time 2016-02-05_12:36:40 on domain   2:    1.25276 elapsed seconds
Timing for main: time 2016-02-05_12:36:53 on domain   3:     .13301 elapsed seconds
Timing for main: time 2016-02-05_12:37:06 on domain   3:     .11873 elapsed seconds
Timing for main: time 2016-02-05_12:37:20 on domain   3:     .11951 elapsed seconds
Timing for main: time 2016-02-05_12:37:00 on domain   4:     .15164 elapsed seconds
Timing for main: time 2016-02-05_12:37:20 on domain   4:     .14114 elapsed seconds
Timing for main: time 2016-02-05_12:37:20 on domain   2:    1.23794 elapsed seconds
Timing for main: time 2016-02-05_12:37:33 on domain   3:     .13327 elapsed seconds
Timing for main: time 2016-02-05_12:37:46 on domain   3:     .11856 elapsed seconds
Timing for main: time 2016-02-05_12:38:00 on domain   3:     .11852 elapsed seconds
Timing for main: time 2016-02-05_12:37:40 on domain   4:     .14925 elapsed seconds
Timing for main: time 2016-02-05_12:38:00 on domain   4:     .14312 elapsed seconds
Timing for main: time 2016-02-05_12:38:00 on domain   2:    1.22856 elapsed seconds
Timing for main: time 2016-02-05_12:38:00 on domain   1:    3.99406 elapsed seconds
Timing for main: time 2016-02-05_12:38:13 on domain   3:     .13318 elapsed seconds
Timing for main: time 2016-02-05_12:38:26 on domain   3:     .11849 elapsed seconds
Timing for main: time 2016-02-05_12:38:40 on domain   3:     .11866 elapsed seconds
Timing for main: time 2016-02-05_12:38:20 on domain   4:     .14970 elapsed seconds
Timing for main: time 2016-02-05_12:38:40 on domain   4:     .14916 elapsed seconds
Timing for main: time 2016-02-05_12:38:40 on domain   2:    1.23454 elapsed seconds
Timing for main: time 2016-02-05_12:38:53 on domain   3:     .13429 elapsed seconds
Timing for main: time 2016-02-05_12:39:06 on domain   3:     .12204 elapsed seconds
Timing for main: time 2016-02-05_12:39:20 on domain   3:     .11884 elapsed seconds
Timing for main: time 2016-02-05_12:39:00 on domain   4:     .15042 elapsed seconds
Timing for main: time 2016-02-05_12:39:20 on domain   4:     .14290 elapsed seconds
Timing for main: time 2016-02-05_12:39:20 on domain   2:    1.23454 elapsed seconds
Timing for main: time 2016-02-05_12:39:33 on domain   3:     .13314 elapsed seconds
Timing for main: time 2016-02-05_12:39:46 on domain   3:     .11822 elapsed seconds
Timing for main: time 2016-02-05_12:40:00 on domain   3:     .11830 elapsed seconds
Timing for main: time 2016-02-05_12:39:40 on domain   4:     .14962 elapsed seconds
Timing for main: time 2016-02-05_12:40:00 on domain   4:     .15536 elapsed seconds
Timing for main: time 2016-02-05_12:40:00 on domain   2:    1.23802 elapsed seconds
Timing for main: time 2016-02-05_12:40:00 on domain   1:    3.98117 elapsed seconds
Timing for main: time 2016-02-05_12:40:13 on domain   3:     .13270 elapsed seconds
Timing for main: time 2016-02-05_12:40:26 on domain   3:     .11818 elapsed seconds
Timing for main: time 2016-02-05_12:40:40 on domain   3:     .15057 elapsed seconds
Timing for main: time 2016-02-05_12:40:20 on domain   4:     .14994 elapsed seconds
Timing for main: time 2016-02-05_12:40:40 on domain   4:     .14283 elapsed seconds
Timing for main: time 2016-02-05_12:40:40 on domain   2:    1.30206 elapsed seconds
Timing for main: time 2016-02-05_12:40:53 on domain   3:     .13936 elapsed seconds
Timing for main: time 2016-02-05_12:41:06 on domain   3:     .11841 elapsed seconds
Timing for main: time 2016-02-05_12:41:20 on domain   3:     .12179 elapsed seconds
Timing for main: time 2016-02-05_12:41:00 on domain   4:     .15045 elapsed seconds
Timing for main: time 2016-02-05_12:41:20 on domain   4:     .14480 elapsed seconds
Timing for main: time 2016-02-05_12:41:20 on domain   2:    1.23847 elapsed seconds
Timing for main: time 2016-02-05_12:41:33 on domain   3:     .13321 elapsed seconds
Timing for main: time 2016-02-05_12:41:46 on domain   3:     .11819 elapsed seconds
Timing for main: time 2016-02-05_12:42:00 on domain   3:     .13029 elapsed seconds
Timing for main: time 2016-02-05_12:41:40 on domain   4:     .14980 elapsed seconds
Timing for main: time 2016-02-05_12:42:00 on domain   4:     .14279 elapsed seconds
Timing for main: time 2016-02-05_12:42:00 on domain   2:    1.23745 elapsed seconds
Timing for main: time 2016-02-05_12:42:00 on domain   1:    4.05707 elapsed seconds
Timing for main: time 2016-02-05_12:42:13 on domain   3:     .13262 elapsed seconds
Timing for main: time 2016-02-05_12:42:26 on domain   3:     .12872 elapsed seconds
Timing for main: time 2016-02-05_12:42:40 on domain   3:     .13209 elapsed seconds
Timing for main: time 2016-02-05_12:42:20 on domain   4:     .15001 elapsed seconds
Timing for main: time 2016-02-05_12:42:40 on domain   4:     .14278 elapsed seconds
Timing for main: time 2016-02-05_12:42:40 on domain   2:    1.25937 elapsed seconds
Timing for main: time 2016-02-05_12:42:53 on domain   3:     .13319 elapsed seconds
Timing for main: time 2016-02-05_12:43:06 on domain   3:     .11806 elapsed seconds
Timing for main: time 2016-02-05_12:43:20 on domain   3:     .11862 elapsed seconds
Timing for main: time 2016-02-05_12:43:00 on domain   4:     .14990 elapsed seconds
Timing for main: time 2016-02-05_12:43:20 on domain   4:     .14332 elapsed seconds
Timing for main: time 2016-02-05_12:43:20 on domain   2:    1.22731 elapsed seconds
Timing for main: time 2016-02-05_12:43:33 on domain   3:     .13302 elapsed seconds
Timing for main: time 2016-02-05_12:43:46 on domain   3:     .11820 elapsed seconds
Timing for main: time 2016-02-05_12:44:00 on domain   3:     .12098 elapsed seconds
Timing for main: time 2016-02-05_12:43:40 on domain   4:     .14955 elapsed seconds
Timing for main: time 2016-02-05_12:44:00 on domain   4:     .14277 elapsed seconds
Timing for main: time 2016-02-05_12:44:00 on domain   2:    1.22802 elapsed seconds
Timing for main: time 2016-02-05_12:44:00 on domain   1:    3.98875 elapsed seconds
Timing for main: time 2016-02-05_12:44:13 on domain   3:     .13300 elapsed seconds
Timing for main: time 2016-02-05_12:44:26 on domain   3:     .11844 elapsed seconds
Timing for main: time 2016-02-05_12:44:40 on domain   3:     .12151 elapsed seconds
Timing for main: time 2016-02-05_12:44:20 on domain   4:     .15024 elapsed seconds
Timing for main: time 2016-02-05_12:44:40 on domain   4:     .14283 elapsed seconds
Timing for main: time 2016-02-05_12:44:40 on domain   2:    1.23080 elapsed seconds
Timing for main: time 2016-02-05_12:44:53 on domain   3:     .13323 elapsed seconds
Timing for main: time 2016-02-05_12:45:06 on domain   3:     .11816 elapsed seconds
Timing for main: time 2016-02-05_12:45:20 on domain   3:     .12203 elapsed seconds
Timing for main: time 2016-02-05_12:45:00 on domain   4:     .15594 elapsed seconds
Timing for main: time 2016-02-05_12:45:20 on domain   4:     .14526 elapsed seconds
Timing for main: time 2016-02-05_12:45:20 on domain   2:    1.24055 elapsed seconds
Timing for main: time 2016-02-05_12:45:33 on domain   3:     .13545 elapsed seconds
Timing for main: time 2016-02-05_12:45:46 on domain   3:     .12559 elapsed seconds
Timing for main: time 2016-02-05_12:46:00 on domain   3:     .12594 elapsed seconds
Timing for main: time 2016-02-05_12:45:40 on domain   4:     .14978 elapsed seconds
Timing for main: time 2016-02-05_12:46:00 on domain   4:     .14261 elapsed seconds
Timing for main: time 2016-02-05_12:46:00 on domain   2:    1.24162 elapsed seconds
Timing for main: time 2016-02-05_12:46:00 on domain   1:    3.98681 elapsed seconds
Timing for main: time 2016-02-05_12:46:13 on domain   3:     .13320 elapsed seconds
Timing for main: time 2016-02-05_12:46:26 on domain   3:     .11861 elapsed seconds
Timing for main: time 2016-02-05_12:46:40 on domain   3:     .11839 elapsed seconds
Timing for main: time 2016-02-05_12:46:20 on domain   4:     .15008 elapsed seconds
Timing for main: time 2016-02-05_12:46:40 on domain   4:     .14363 elapsed seconds
Timing for main: time 2016-02-05_12:46:40 on domain   2:    1.23088 elapsed seconds
Timing for main: time 2016-02-05_12:46:53 on domain   3:     .13297 elapsed seconds
Timing for main: time 2016-02-05_12:47:06 on domain   3:     .11806 elapsed seconds
Timing for main: time 2016-02-05_12:47:20 on domain   3:     .12037 elapsed seconds
Timing for main: time 2016-02-05_12:47:00 on domain   4:     .15188 elapsed seconds
Timing for main: time 2016-02-05_12:47:20 on domain   4:     .14361 elapsed seconds
Timing for main: time 2016-02-05_12:47:20 on domain   2:    1.22798 elapsed seconds
Timing for main: time 2016-02-05_12:47:33 on domain   3:     .13283 elapsed seconds
Timing for main: time 2016-02-05_12:47:46 on domain   3:     .11808 elapsed seconds
Timing for main: time 2016-02-05_12:48:00 on domain   3:     .12021 elapsed seconds
Timing for main: time 2016-02-05_12:47:40 on domain   4:     .14851 elapsed seconds
Timing for main: time 2016-02-05_12:48:00 on domain   4:     .14277 elapsed seconds
Timing for main: time 2016-02-05_12:48:00 on domain   2:    1.23343 elapsed seconds
Timing for main: time 2016-02-05_12:48:00 on domain   1:    3.97058 elapsed seconds
Timing for main: time 2016-02-05_12:48:13 on domain   3:     .13272 elapsed seconds
Timing for main: time 2016-02-05_12:48:26 on domain   3:     .11819 elapsed seconds
Timing for main: time 2016-02-05_12:48:40 on domain   3:     .11841 elapsed seconds
Timing for main: time 2016-02-05_12:48:20 on domain   4:     .14959 elapsed seconds
Timing for main: time 2016-02-05_12:48:40 on domain   4:     .14264 elapsed seconds
Timing for main: time 2016-02-05_12:48:40 on domain   2:    1.25055 elapsed seconds
Timing for main: time 2016-02-05_12:48:53 on domain   3:     .13279 elapsed seconds
Timing for main: time 2016-02-05_12:49:06 on domain   3:     .11825 elapsed seconds
Timing for main: time 2016-02-05_12:49:20 on domain   3:     .12561 elapsed seconds
Timing for main: time 2016-02-05_12:49:00 on domain   4:     .16814 elapsed seconds
Timing for main: time 2016-02-05_12:49:20 on domain   4:     .15347 elapsed seconds
Timing for main: time 2016-02-05_12:49:20 on domain   2:    1.25934 elapsed seconds
Timing for main: time 2016-02-05_12:49:33 on domain   3:     .13326 elapsed seconds
Timing for main: time 2016-02-05_12:49:46 on domain   3:     .11797 elapsed seconds
Timing for main: time 2016-02-05_12:50:00 on domain   3:     .11848 elapsed seconds
Timing for main: time 2016-02-05_12:49:40 on domain   4:     .14967 elapsed seconds
Timing for main: time 2016-02-05_12:50:00 on domain   4:     .14967 elapsed seconds
Timing for main: time 2016-02-05_12:50:00 on domain   2:    1.23294 elapsed seconds
Timing for main: time 2016-02-05_12:50:00 on domain   1:    4.02312 elapsed seconds
Timing for main: time 2016-02-05_12:50:13 on domain   3:     .13288 elapsed seconds
Timing for main: time 2016-02-05_12:50:26 on domain   3:     .12352 elapsed seconds
Timing for main: time 2016-02-05_12:50:40 on domain   3:     .11832 elapsed seconds
Timing for main: time 2016-02-05_12:50:20 on domain   4:     .14956 elapsed seconds
Timing for main: time 2016-02-05_12:50:40 on domain   4:     .14273 elapsed seconds
Timing for main: time 2016-02-05_12:50:40 on domain   2:    1.23284 elapsed seconds
Timing for main: time 2016-02-05_12:50:53 on domain   3:     .15470 elapsed seconds
Timing for main: time 2016-02-05_12:51:06 on domain   3:     .17844 elapsed seconds
Timing for main: time 2016-02-05_12:51:20 on domain   3:     .11912 elapsed seconds
Timing for main: time 2016-02-05_12:51:00 on domain   4:     .15066 elapsed seconds
Timing for main: time 2016-02-05_12:51:20 on domain   4:     .14245 elapsed seconds
Timing for main: time 2016-02-05_12:51:20 on domain   2:    1.30856 elapsed seconds
Timing for main: time 2016-02-05_12:51:33 on domain   3:     .13292 elapsed seconds
Timing for main: time 2016-02-05_12:51:46 on domain   3:     .11785 elapsed seconds
Timing for main: time 2016-02-05_12:52:00 on domain   3:     .12129 elapsed seconds
Timing for main: time 2016-02-05_12:51:40 on domain   4:     .14993 elapsed seconds
Timing for main: time 2016-02-05_12:52:00 on domain   4:     .14226 elapsed seconds
Timing for main: time 2016-02-05_12:52:00 on domain   2:    1.22782 elapsed seconds
Timing for main: time 2016-02-05_12:52:00 on domain   1:    4.04261 elapsed seconds
Timing for main: time 2016-02-05_12:52:13 on domain   3:     .13873 elapsed seconds
Timing for main: time 2016-02-05_12:52:26 on domain   3:     .12154 elapsed seconds
Timing for main: time 2016-02-05_12:52:40 on domain   3:     .15045 elapsed seconds
Timing for main: time 2016-02-05_12:52:20 on domain   4:     .14958 elapsed seconds
Timing for main: time 2016-02-05_12:52:40 on domain   4:     .14263 elapsed seconds
Timing for main: time 2016-02-05_12:52:40 on domain   2:    1.29420 elapsed seconds
Timing for main: time 2016-02-05_12:52:53 on domain   3:     .13332 elapsed seconds
Timing for main: time 2016-02-05_12:53:06 on domain   3:     .11827 elapsed seconds
Timing for main: time 2016-02-05_12:53:20 on domain   3:     .11795 elapsed seconds
Timing for main: time 2016-02-05_12:53:00 on domain   4:     .15075 elapsed seconds
Timing for main: time 2016-02-05_12:53:20 on domain   4:     .14266 elapsed seconds
Timing for main: time 2016-02-05_12:53:20 on domain   2:    1.23326 elapsed seconds
Timing for main: time 2016-02-05_12:53:33 on domain   3:     .13287 elapsed seconds
Timing for main: time 2016-02-05_12:53:46 on domain   3:     .11852 elapsed seconds
Timing for main: time 2016-02-05_12:54:00 on domain   3:     .11899 elapsed seconds
Timing for main: time 2016-02-05_12:53:40 on domain   4:     .14955 elapsed seconds
Timing for main: time 2016-02-05_12:54:00 on domain   4:     .14417 elapsed seconds
Timing for main: time 2016-02-05_12:54:00 on domain   2:    1.22705 elapsed seconds
Timing for main: time 2016-02-05_12:54:00 on domain   1:    4.03324 elapsed seconds
Timing for main: time 2016-02-05_12:54:13 on domain   3:     .13288 elapsed seconds
Timing for main: time 2016-02-05_12:54:26 on domain   3:     .11795 elapsed seconds
Timing for main: time 2016-02-05_12:54:40 on domain   3:     .11838 elapsed seconds
Timing for main: time 2016-02-05_12:54:20 on domain   4:     .14982 elapsed seconds
Timing for main: time 2016-02-05_12:54:40 on domain   4:     .14294 elapsed seconds
Timing for main: time 2016-02-05_12:54:40 on domain   2:    1.22776 elapsed seconds
Timing for main: time 2016-02-05_12:54:53 on domain   3:     .13312 elapsed seconds
Timing for main: time 2016-02-05_12:55:06 on domain   3:     .11834 elapsed seconds
Timing for main: time 2016-02-05_12:55:20 on domain   3:     .12084 elapsed seconds
Timing for main: time 2016-02-05_12:55:00 on domain   4:     .15608 elapsed seconds
Timing for main: time 2016-02-05_12:55:20 on domain   4:     .14253 elapsed seconds
Timing for main: time 2016-02-05_12:55:20 on domain   2:    1.23407 elapsed seconds
Timing for main: time 2016-02-05_12:55:33 on domain   3:     .13323 elapsed seconds
Timing for main: time 2016-02-05_12:55:46 on domain   3:     .11819 elapsed seconds
Timing for main: time 2016-02-05_12:56:00 on domain   3:     .11851 elapsed seconds
Timing for main: time 2016-02-05_12:55:40 on domain   4:     .14983 elapsed seconds
Timing for main: time 2016-02-05_12:56:00 on domain   4:     .14262 elapsed seconds
Timing for main: time 2016-02-05_12:56:00 on domain   2:    1.23316 elapsed seconds
Timing for main: time 2016-02-05_12:56:00 on domain   1:    3.96952 elapsed seconds
Timing for main: time 2016-02-05_12:56:13 on domain   3:     .13811 elapsed seconds
Timing for main: time 2016-02-05_12:56:26 on domain   3:     .13028 elapsed seconds
Timing for main: time 2016-02-05_12:56:40 on domain   3:     .11827 elapsed seconds
Timing for main: time 2016-02-05_12:56:20 on domain   4:     .15021 elapsed seconds
Timing for main: time 2016-02-05_12:56:40 on domain   4:     .14412 elapsed seconds
Timing for main: time 2016-02-05_12:56:40 on domain   2:    1.24935 elapsed seconds
Timing for main: time 2016-02-05_12:56:53 on domain   3:     .13319 elapsed seconds
Timing for main: time 2016-02-05_12:57:06 on domain   3:     .11814 elapsed seconds
Timing for main: time 2016-02-05_12:57:20 on domain   3:     .11970 elapsed seconds
Timing for main: time 2016-02-05_12:57:00 on domain   4:     .15053 elapsed seconds
Timing for main: time 2016-02-05_12:57:20 on domain   4:     .14180 elapsed seconds
Timing for main: time 2016-02-05_12:57:20 on domain   2:    1.22766 elapsed seconds
Timing for main: time 2016-02-05_12:57:33 on domain   3:     .14738 elapsed seconds
Timing for main: time 2016-02-05_12:57:46 on domain   3:     .16672 elapsed seconds
Timing for main: time 2016-02-05_12:58:00 on domain   3:     .14216 elapsed seconds
Timing for main: time 2016-02-05_12:57:40 on domain   4:     .15217 elapsed seconds
Timing for main: time 2016-02-05_12:58:00 on domain   4:     .14149 elapsed seconds
Timing for main: time 2016-02-05_12:58:00 on domain   2:    1.31116 elapsed seconds
Timing for main: time 2016-02-05_12:58:00 on domain   1:    4.06180 elapsed seconds
  photolysis_driver: called for domain  1
Timing for main: time 2016-02-05_12:58:13 on domain   3:     .13322 elapsed seconds
Timing for main: time 2016-02-05_12:58:26 on domain   3:     .11807 elapsed seconds
Timing for main: time 2016-02-05_12:58:40 on domain   3:     .11825 elapsed seconds
Timing for main: time 2016-02-05_12:58:20 on domain   4:     .15003 elapsed seconds
Timing for main: time 2016-02-05_12:58:40 on domain   4:     .14233 elapsed seconds
Timing for main: time 2016-02-05_12:58:40 on domain   2:    1.23582 elapsed seconds
Timing for main: time 2016-02-05_12:58:53 on domain   3:     .13364 elapsed seconds
Timing for main: time 2016-02-05_12:59:06 on domain   3:     .11977 elapsed seconds
Timing for main: time 2016-02-05_12:59:20 on domain   3:     .11884 elapsed seconds
Timing for main: time 2016-02-05_12:59:00 on domain   4:     .15295 elapsed seconds
Timing for main: time 2016-02-05_12:59:20 on domain   4:     .14180 elapsed seconds
Timing for main: time 2016-02-05_12:59:20 on domain   2:    1.24558 elapsed seconds
  photolysis_driver: called for domain  2
Timing for main: time 2016-02-05_12:59:33 on domain   3:     .13300 elapsed seconds
Timing for main: time 2016-02-05_12:59:46 on domain   3:     .12031 elapsed seconds
  photolysis_driver: called for domain  3
Timing for main: time 2016-02-05_13:00:00 on domain   3:     .65874 elapsed seconds
Timing for main: time 2016-02-05_12:59:40 on domain   4:     .15395 elapsed seconds
  photolysis_driver: called for domain  4
Timing for main: time 2016-02-05_13:00:00 on domain   4:     .77863 elapsed seconds
Timing for main: time 2016-02-05_13:00:00 on domain   2:    3.08818 elapsed seconds
Timing for main: time 2016-02-05_13:00:00 on domain   1:    6.23948 elapsed seconds
Timing for Writing wrfout_d01_2016-02-05_13:00:00 for domain        1:    1.63600 elapsed seconds
  HOURLY EMISSIONS UPDATE TIME     3600.0        .0
 mediation_integrate: med_read_wrf_chem_emissions: Read emissions for time 2016-02-05_13:00:00
 **WARNING** Time in input file not being checked **WARNING**
Timing for Writing wrfout_d02_2016-02-05_13:00:00 for domain        2:    2.26963 elapsed seconds
Timing for Writing wrfout_d03_2016-02-05_13:00:00 for domain        3:    2.25489 elapsed seconds
Timing for main: time 2016-02-05_13:00:13 on domain   3:    2.50001 elapsed seconds
Timing for main: time 2016-02-05_13:00:26 on domain   3:     .13267 elapsed seconds
Timing for main: time 2016-02-05_13:00:40 on domain   3:     .13145 elapsed seconds
Timing for Writing wrfout_d04_2016-02-05_13:00:00 for domain        4:    2.17197 elapsed seconds
Timing for main: time 2016-02-05_13:00:20 on domain   4:    2.48390 elapsed seconds
Timing for main: time 2016-02-05_13:00:40 on domain   4:     .16110 elapsed seconds
Timing for main: time 2016-02-05_13:00:40 on domain   2:    8.38912 elapsed seconds
Timing for main: time 2016-02-05_13:00:53 on domain   3:     .13502 elapsed seconds
Timing for main: time 2016-02-05_13:01:06 on domain   3:     .11918 elapsed seconds
Timing for main: time 2016-02-05_13:01:20 on domain   3:     .12653 elapsed seconds
Timing for main: time 2016-02-05_13:01:00 on domain   4:     .14951 elapsed seconds
Timing for main: time 2016-02-05_13:01:20 on domain   4:     .14428 elapsed seconds
Timing for main: time 2016-02-05_13:01:20 on domain   2:    1.25243 elapsed seconds
Timing for main: time 2016-02-05_13:01:33 on domain   3:     .13247 elapsed seconds
Timing for main: time 2016-02-05_13:01:46 on domain   3:     .12108 elapsed seconds
Timing for main: time 2016-02-05_13:02:00 on domain   3:     .11852 elapsed seconds
Timing for main: time 2016-02-05_13:01:40 on domain   4:     .14985 elapsed seconds
Timing for main: time 2016-02-05_13:02:00 on domain   4:     .14437 elapsed seconds
Timing for main: time 2016-02-05_13:02:00 on domain   2:    1.23106 elapsed seconds
Timing for main: time 2016-02-05_13:02:00 on domain   1:   13.24255 elapsed seconds
Timing for main: time 2016-02-05_13:02:13 on domain   3:     .13305 elapsed seconds
Timing for main: time 2016-02-05_13:02:26 on domain   3:     .11830 elapsed seconds
Timing for main: time 2016-02-05_13:02:40 on domain   3:     .11829 elapsed seconds
Timing for main: time 2016-02-05_13:02:20 on domain   4:     .15008 elapsed seconds
Timing for main: time 2016-02-05_13:02:40 on domain   4:     .14215 elapsed seconds
Timing for main: time 2016-02-05_13:02:40 on domain   2:    1.22902 elapsed seconds
Timing for main: time 2016-02-05_13:02:53 on domain   3:     .13324 elapsed seconds
Timing for main: time 2016-02-05_13:03:06 on domain   3:     .12156 elapsed seconds
Timing for main: time 2016-02-05_13:03:20 on domain   3:     .11837 elapsed seconds
Timing for main: time 2016-02-05_13:03:00 on domain   4:     .15029 elapsed seconds
Timing for main: time 2016-02-05_13:03:20 on domain   4:     .15189 elapsed seconds
Timing for main: time 2016-02-05_13:03:20 on domain   2:    1.23815 elapsed seconds
Timing for main: time 2016-02-05_13:03:33 on domain   3:     .14180 elapsed seconds
Timing for main: time 2016-02-05_13:03:46 on domain   3:     .11853 elapsed seconds
Timing for main: time 2016-02-05_13:04:00 on domain   3:     .11835 elapsed seconds
Timing for main: time 2016-02-05_13:03:40 on domain   4:     .14966 elapsed seconds
Timing for main: time 2016-02-05_13:04:00 on domain   4:     .14313 elapsed seconds
Timing for main: time 2016-02-05_13:04:00 on domain   2:    1.23998 elapsed seconds
Timing for main: time 2016-02-05_13:04:00 on domain   1:    3.97836 elapsed seconds
Timing for main: time 2016-02-05_13:04:13 on domain   3:     .13332 elapsed seconds
Timing for main: time 2016-02-05_13:04:26 on domain   3:     .11850 elapsed seconds
Timing for main: time 2016-02-05_13:04:40 on domain   3:     .11969 elapsed seconds
Timing for main: time 2016-02-05_13:04:20 on domain   4:     .15028 elapsed seconds
Timing for main: time 2016-02-05_13:04:40 on domain   4:     .14249 elapsed seconds
Timing for main: time 2016-02-05_13:04:40 on domain   2:    1.23247 elapsed seconds
Timing for main: time 2016-02-05_13:04:53 on domain   3:     .13299 elapsed seconds
Timing for main: time 2016-02-05_13:05:06 on domain   3:     .11869 elapsed seconds
Timing for main: time 2016-02-05_13:05:20 on domain   3:     .11817 elapsed seconds
Timing for main: time 2016-02-05_13:05:00 on domain   4:     .15640 elapsed seconds
Timing for main: time 2016-02-05_13:05:20 on domain   4:     .19744 elapsed seconds
Timing for main: time 2016-02-05_13:05:20 on domain   2:    1.28691 elapsed seconds
Timing for main: time 2016-02-05_13:05:33 on domain   3:     .13420 elapsed seconds
Timing for main: time 2016-02-05_13:05:46 on domain   3:     .12551 elapsed seconds
Timing for main: time 2016-02-05_13:06:00 on domain   3:     .12055 elapsed seconds
Timing for main: time 2016-02-05_13:05:40 on domain   4:     .17784 elapsed seconds
Timing for main: time 2016-02-05_13:06:00 on domain   4:     .15794 elapsed seconds
Timing for main: time 2016-02-05_13:06:00 on domain   2:    1.31661 elapsed seconds
Timing for main: time 2016-02-05_13:06:00 on domain   1:    4.11406 elapsed seconds
Timing for main: time 2016-02-05_13:06:13 on domain   3:     .13314 elapsed seconds
Timing for main: time 2016-02-05_13:06:26 on domain   3:     .12317 elapsed seconds
Timing for main: time 2016-02-05_13:06:40 on domain   3:     .11966 elapsed seconds
Timing for main: time 2016-02-05_13:06:20 on domain   4:     .14948 elapsed seconds
Timing for main: time 2016-02-05_13:06:40 on domain   4:     .14316 elapsed seconds
Timing for main: time 2016-02-05_13:06:40 on domain   2:    1.23449 elapsed seconds
Timing for main: time 2016-02-05_13:06:53 on domain   3:     .13381 elapsed seconds
Timing for main: time 2016-02-05_13:07:06 on domain   3:     .12114 elapsed seconds
Timing for main: time 2016-02-05_13:07:20 on domain   3:     .12271 elapsed seconds
Timing for main: time 2016-02-05_13:07:00 on domain   4:     .14973 elapsed seconds
Timing for main: time 2016-02-05_13:07:20 on domain   4:     .14257 elapsed seconds
Timing for main: time 2016-02-05_13:07:20 on domain   2:    1.22984 elapsed seconds
Timing for main: time 2016-02-05_13:07:33 on domain   3:     .13326 elapsed seconds
Timing for main: time 2016-02-05_13:07:46 on domain   3:     .11838 elapsed seconds
Timing for main: time 2016-02-05_13:08:00 on domain   3:     .11877 elapsed seconds
Timing for main: time 2016-02-05_13:07:40 on domain   4:     .15018 elapsed seconds
Timing for main: time 2016-02-05_13:08:00 on domain   4:     .14231 elapsed seconds
Timing for main: time 2016-02-05_13:08:00 on domain   2:    1.22408 elapsed seconds
Timing for main: time 2016-02-05_13:08:00 on domain   1:    3.96152 elapsed seconds
Timing for main: time 2016-02-05_13:08:13 on domain   3:     .13477 elapsed seconds
Timing for main: time 2016-02-05_13:08:26 on domain   3:     .11899 elapsed seconds
Timing for main: time 2016-02-05_13:08:40 on domain   3:     .11866 elapsed seconds
Timing for main: time 2016-02-05_13:08:20 on domain   4:     .17486 elapsed seconds
Timing for main: time 2016-02-05_13:08:40 on domain   4:     .17876 elapsed seconds
Timing for main: time 2016-02-05_13:08:40 on domain   2:    1.29156 elapsed seconds
Timing for main: time 2016-02-05_13:08:53 on domain   3:     .13449 elapsed seconds
Timing for main: time 2016-02-05_13:09:06 on domain   3:     .11970 elapsed seconds
Timing for main: time 2016-02-05_13:09:20 on domain   3:     .11849 elapsed seconds
Timing for main: time 2016-02-05_13:09:00 on domain   4:     .15296 elapsed seconds
Timing for main: time 2016-02-05_13:09:20 on domain   4:     .14813 elapsed seconds
Timing for main: time 2016-02-05_13:09:20 on domain   2:    1.24212 elapsed seconds
Timing for main: time 2016-02-05_13:09:33 on domain   3:     .13579 elapsed seconds
Timing for main: time 2016-02-05_13:09:46 on domain   3:     .12026 elapsed seconds
Timing for main: time 2016-02-05_13:10:00 on domain   3:     .12083 elapsed seconds
Timing for main: time 2016-02-05_13:09:40 on domain   4:     .15763 elapsed seconds
Timing for main: time 2016-02-05_13:10:00 on domain   4:     .14840 elapsed seconds
Timing for main: time 2016-02-05_13:10:00 on domain   2:    1.24781 elapsed seconds
Timing for main: time 2016-02-05_13:10:00 on domain   1:    4.05692 elapsed seconds
Timing for main: time 2016-02-05_13:10:13 on domain   3:     .13323 elapsed seconds
Timing for main: time 2016-02-05_13:10:26 on domain   3:     .11832 elapsed seconds
Timing for main: time 2016-02-05_13:10:40 on domain   3:     .11952 elapsed seconds
Timing for main: time 2016-02-05_13:10:20 on domain   4:     .14970 elapsed seconds
Timing for main: time 2016-02-05_13:10:40 on domain   4:     .14536 elapsed seconds
Timing for main: time 2016-02-05_13:10:40 on domain   2:    1.23154 elapsed seconds
Timing for main: time 2016-02-05_13:10:53 on domain   3:     .13305 elapsed seconds
Timing for main: time 2016-02-05_13:11:06 on domain   3:     .11819 elapsed seconds
Timing for main: time 2016-02-05_13:11:20 on domain   3:     .12100 elapsed seconds
Timing for main: time 2016-02-05_13:11:00 on domain   4:     .15017 elapsed seconds
Timing for main: time 2016-02-05_13:11:20 on domain   4:     .14202 elapsed seconds
Timing for main: time 2016-02-05_13:11:20 on domain   2:    1.24291 elapsed seconds
Timing for main: time 2016-02-05_13:11:33 on domain   3:     .14039 elapsed seconds
Timing for main: time 2016-02-05_13:11:46 on domain   3:     .11849 elapsed seconds
Timing for main: time 2016-02-05_13:12:00 on domain   3:     .11957 elapsed seconds
Timing for main: time 2016-02-05_13:11:40 on domain   4:     .15021 elapsed seconds
Timing for main: time 2016-02-05_13:12:00 on domain   4:     .14412 elapsed seconds
Timing for main: time 2016-02-05_13:12:00 on domain   2:    1.23538 elapsed seconds
Timing for main: time 2016-02-05_13:12:00 on domain   1:    3.98836 elapsed seconds
Timing for main: time 2016-02-05_13:12:13 on domain   3:     .13647 elapsed seconds
Timing for main: time 2016-02-05_13:12:26 on domain   3:     .12835 elapsed seconds
Timing for main: time 2016-02-05_13:12:40 on domain   3:     .11864 elapsed seconds
Timing for main: time 2016-02-05_13:12:20 on domain   4:     .14999 elapsed seconds
Timing for main: time 2016-02-05_13:12:40 on domain   4:     .14231 elapsed seconds
Timing for main: time 2016-02-05_13:12:40 on domain   2:    1.24116 elapsed seconds
Timing for main: time 2016-02-05_13:12:53 on domain   3:     .13403 elapsed seconds
Timing for main: time 2016-02-05_13:13:06 on domain   3:     .11850 elapsed seconds
Timing for main: time 2016-02-05_13:13:20 on domain   3:     .11855 elapsed seconds
Timing for main: time 2016-02-05_13:13:00 on domain   4:     .15010 elapsed seconds
Timing for main: time 2016-02-05_13:13:20 on domain   4:     .14465 elapsed seconds
Timing for main: time 2016-02-05_13:13:20 on domain   2:    1.22781 elapsed seconds
Timing for main: time 2016-02-05_13:13:33 on domain   3:     .13344 elapsed seconds
Timing for main: time 2016-02-05_13:13:46 on domain   3:     .11853 elapsed seconds
Timing for main: time 2016-02-05_13:14:00 on domain   3:     .11839 elapsed seconds
Timing for main: time 2016-02-05_13:13:40 on domain   4:     .15065 elapsed seconds
Timing for main: time 2016-02-05_13:14:00 on domain   4:     .14967 elapsed seconds
Timing for main: time 2016-02-05_13:14:00 on domain   2:    1.23286 elapsed seconds
Timing for main: time 2016-02-05_13:14:00 on domain   1:    3.97437 elapsed seconds
Timing for main: time 2016-02-05_13:14:13 on domain   3:     .13325 elapsed seconds
Timing for main: time 2016-02-05_13:14:26 on domain   3:     .11843 elapsed seconds
Timing for main: time 2016-02-05_13:14:40 on domain   3:     .12163 elapsed seconds
Timing for main: time 2016-02-05_13:14:20 on domain   4:     .15014 elapsed seconds
Timing for main: time 2016-02-05_13:14:40 on domain   4:     .14360 elapsed seconds
Timing for main: time 2016-02-05_13:14:40 on domain   2:    1.23846 elapsed seconds
Timing for main: time 2016-02-05_13:14:53 on domain   3:     .13604 elapsed seconds
Timing for main: time 2016-02-05_13:15:06 on domain   3:     .11879 elapsed seconds
Timing for main: time 2016-02-05_13:15:20 on domain   3:     .11838 elapsed seconds
Timing for main: time 2016-02-05_13:15:00 on domain   4:     .15796 elapsed seconds
Timing for main: time 2016-02-05_13:15:20 on domain   4:     .14435 elapsed seconds
Timing for main: time 2016-02-05_13:15:20 on domain   2:    1.23696 elapsed seconds
Timing for main: time 2016-02-05_13:15:33 on domain   3:     .13338 elapsed seconds
Timing for main: time 2016-02-05_13:15:46 on domain   3:     .11874 elapsed seconds
Timing for main: time 2016-02-05_13:16:00 on domain   3:     .12255 elapsed seconds
Timing for main: time 2016-02-05_13:15:40 on domain   4:     .15038 elapsed seconds
Timing for main: time 2016-02-05_13:16:00 on domain   4:     .14206 elapsed seconds
Timing for main: time 2016-02-05_13:16:00 on domain   2:    1.22972 elapsed seconds
Timing for main: time 2016-02-05_13:16:00 on domain   1:    3.97742 elapsed seconds
Timing for main: time 2016-02-05_13:16:13 on domain   3:     .13314 elapsed seconds
Timing for main: time 2016-02-05_13:16:26 on domain   3:     .11849 elapsed seconds
Timing for main: time 2016-02-05_13:16:40 on domain   3:     .12444 elapsed seconds
Timing for main: time 2016-02-05_13:16:20 on domain   4:     .15007 elapsed seconds
Timing for main: time 2016-02-05_13:16:40 on domain   4:     .14188 elapsed seconds
Timing for main: time 2016-02-05_13:16:40 on domain   2:    1.23249 elapsed seconds
Timing for main: time 2016-02-05_13:16:53 on domain   3:     .13319 elapsed seconds
Timing for main: time 2016-02-05_13:17:06 on domain   3:     .12971 elapsed seconds
Timing for main: time 2016-02-05_13:17:20 on domain   3:     .11992 elapsed seconds
Timing for main: time 2016-02-05_13:17:00 on domain   4:     .14985 elapsed seconds
Timing for main: time 2016-02-05_13:17:20 on domain   4:     .14195 elapsed seconds
Timing for main: time 2016-02-05_13:17:20 on domain   2:    1.24031 elapsed seconds
Timing for main: time 2016-02-05_13:17:33 on domain   3:     .13337 elapsed seconds
[...]
Timing for main: time 2016-02-05_17:36:00 on domain   2:    1.25129 elapsed seconds
Timing for main: time 2016-02-05_17:36:00 on domain   1:    4.00211 elapsed seconds
Timing for main: time 2016-02-05_17:36:13 on domain   3:     .13522 elapsed seconds
Timing for main: time 2016-02-05_17:36:26 on domain   3:     .12189 elapsed seconds
Timing for main: time 2016-02-05_17:36:40 on domain   3:     .12077 elapsed seconds
Timing for main: time 2016-02-05_17:36:20 on domain   4:     .14991 elapsed seconds
Timing for main: time 2016-02-05_17:36:40 on domain   4:     .14272 elapsed seconds
Timing for main: time 2016-02-05_17:36:40 on domain   2:    1.23792 elapsed seconds
Timing for main: time 2016-02-05_17:36:53 on domain   3:     .13525 elapsed seconds
Timing for main: time 2016-02-05_17:37:06 on domain   3:     .11974 elapsed seconds
Timing for main: time 2016-02-05_17:37:20 on domain   3:     .12502 elapsed seconds
Timing for main: time 2016-02-05_17:37:00 on domain   4:     .15015 elapsed seconds
Timing for main: time 2016-02-05_17:37:20 on domain   4:     .14297 elapsed seconds
Timing for main: time 2016-02-05_17:37:20 on domain   2:    1.23745 elapsed seconds
Timing for main: time 2016-02-05_17:37:33 on domain   3:     .13515 elapsed seconds
Timing for main: time 2016-02-05_17:37:46 on domain   3:     .12043 elapsed seconds
Timing for main: time 2016-02-05_17:38:00 on domain   3:     .12218 elapsed seconds
Timing for main: time 2016-02-05_17:37:40 on domain   4:     .15046 elapsed seconds
Timing for main: time 2016-02-05_17:38:00 on domain   4:     .14297 elapsed seconds
Timing for main: time 2016-02-05_17:38:00 on domain   2:    1.23516 elapsed seconds
Timing for main: time 2016-02-05_17:38:00 on domain   1:    3.98296 elapsed seconds
Timing for main: time 2016-02-05_17:38:13 on domain   3:     .13578 elapsed seconds
Timing for main: time 2016-02-05_17:38:26 on domain   3:     .11998 elapsed seconds
Timing for main: time 2016-02-05_17:38:40 on domain   3:     .12973 elapsed seconds
Timing for main: time 2016-02-05_17:38:20 on domain   4:     .15035 elapsed seconds
Timing for main: time 2016-02-05_17:38:40 on domain   4:     .14301 elapsed seconds
Timing for main: time 2016-02-05_17:38:40 on domain   2:    1.24492 elapsed seconds
Timing for main: time 2016-02-05_17:38:53 on domain   3:     .13668 elapsed seconds
Timing for main: time 2016-02-05_17:39:06 on domain   3:     .11986 elapsed seconds
Timing for main: time 2016-02-05_17:39:20 on domain   3:     .12200 elapsed seconds
Timing for main: time 2016-02-05_17:39:00 on domain   4:     .15034 elapsed seconds
Timing for main: time 2016-02-05_17:39:20 on domain   4:     .14283 elapsed seconds
Timing for main: time 2016-02-05_17:39:20 on domain   2:    1.23819 elapsed seconds
Timing for main: time 2016-02-05_17:39:33 on domain   3:     .13528 elapsed seconds
Timing for main: time 2016-02-05_17:39:46 on domain   3:     .11984 elapsed seconds
Timing for main: time 2016-02-05_17:40:00 on domain   3:     .11987 elapsed seconds
Timing for main: time 2016-02-05_17:39:40 on domain   4:     .15041 elapsed seconds
Timing for main: time 2016-02-05_17:40:00 on domain   4:     .14921 elapsed seconds
Timing for main: time 2016-02-05_17:40:00 on domain   2:    1.23927 elapsed seconds
Timing for main: time 2016-02-05_17:40:00 on domain   1:    3.99946 elapsed seconds
Timing for main: time 2016-02-05_17:40:13 on domain   3:     .13510 elapsed seconds
Timing for main: time 2016-02-05_17:40:26 on domain   3:     .12043 elapsed seconds
Timing for main: time 2016-02-05_17:40:40 on domain   3:     .12052 elapsed seconds
Timing for main: time 2016-02-05_17:40:20 on domain   4:     .15291 elapsed seconds
Timing for main: time 2016-02-05_17:40:40 on domain   4:     .14185 elapsed seconds
Timing for main: time 2016-02-05_17:40:40 on domain   2:    1.23719 elapsed seconds
Timing for main: time 2016-02-05_17:40:53 on domain   3:     .13590 elapsed seconds
Timing for main: time 2016-02-05_17:41:06 on domain   3:     .11967 elapsed seconds
Timing for main: time 2016-02-05_17:41:20 on domain   3:     .12038 elapsed seconds
Timing for main: time 2016-02-05_17:41:00 on domain   4:     .14852 elapsed seconds
Timing for main: time 2016-02-05_17:41:20 on domain   4:     .14306 elapsed seconds
Timing for main: time 2016-02-05_17:41:20 on domain   2:    1.24114 elapsed seconds
Timing for main: time 2016-02-05_17:41:33 on domain   3:     .13534 elapsed seconds
Timing for main: time 2016-02-05_17:41:46 on domain   3:     .11996 elapsed seconds
Timing for main: time 2016-02-05_17:42:00 on domain   3:     .11984 elapsed seconds
Timing for main: time 2016-02-05_17:41:40 on domain   4:     .15032 elapsed seconds
Timing for main: time 2016-02-05_17:42:00 on domain   4:     .14314 elapsed seconds
Timing for main: time 2016-02-05_17:42:00 on domain   2:    1.23676 elapsed seconds
Timing for main: time 2016-02-05_17:42:00 on domain   1:    4.00230 elapsed seconds
Timing for main: time 2016-02-05_17:42:13 on domain   3:     .13503 elapsed seconds
Timing for main: time 2016-02-05_17:42:26 on domain   3:     .12485 elapsed seconds
Timing for main: time 2016-02-05_17:42:40 on domain   3:     .11987 elapsed seconds
Timing for main: time 2016-02-05_17:42:20 on domain   4:     .15235 elapsed seconds
Timing for main: time 2016-02-05_17:42:40 on domain   4:     .14105 elapsed seconds
Timing for main: time 2016-02-05_17:42:40 on domain   2:    1.23918 elapsed seconds
Timing for main: time 2016-02-05_17:42:53 on domain   3:     .13521 elapsed seconds
Timing for main: time 2016-02-05_17:43:06 on domain   3:     .12479 elapsed seconds
Timing for main: time 2016-02-05_17:43:20 on domain   3:     .11987 elapsed seconds
Timing for main: time 2016-02-05_17:43:00 on domain   4:     .15009 elapsed seconds
Timing for main: time 2016-02-05_17:43:20 on domain   4:     .14299 elapsed seconds
Timing for main: time 2016-02-05_17:43:20 on domain   2:    1.23746 elapsed seconds
Timing for main: time 2016-02-05_17:43:33 on domain   3:     .13520 elapsed seconds
Timing for main: time 2016-02-05_17:43:46 on domain   3:     .12369 elapsed seconds
Timing for main: time 2016-02-05_17:44:00 on domain   3:     .12019 elapsed seconds
Timing for main: time 2016-02-05_17:43:40 on domain   4:     .14967 elapsed seconds
Timing for main: time 2016-02-05_17:44:00 on domain   4:     .14392 elapsed seconds
Timing for main: time 2016-02-05_17:44:00 on domain   2:    1.23635 elapsed seconds
Timing for main: time 2016-02-05_17:44:00 on domain   1:    3.98634 elapsed seconds
Timing for main: time 2016-02-05_17:44:13 on domain   3:     .13903 elapsed seconds
Timing for main: time 2016-02-05_17:44:26 on domain   3:     .11967 elapsed seconds
Timing for main: time 2016-02-05_17:44:40 on domain   3:     .12136 elapsed seconds
Timing for main: time 2016-02-05_17:44:20 on domain   4:     .15019 elapsed seconds
Timing for main: time 2016-02-05_17:44:40 on domain   4:     .17929 elapsed seconds
Timing for main: time 2016-02-05_17:44:40 on domain   2:    1.27578 elapsed seconds
Timing for main: time 2016-02-05_17:44:53 on domain   3:     .13503 elapsed seconds
Timing for main: time 2016-02-05_17:45:06 on domain   3:     .11984 elapsed seconds
Timing for main: time 2016-02-05_17:45:20 on domain   3:     .12001 elapsed seconds
Timing for main: time 2016-02-05_17:45:00 on domain   4:     .18357 elapsed seconds
Timing for main: time 2016-02-05_17:45:20 on domain   4:     .15877 elapsed seconds
Timing for main: time 2016-02-05_17:45:20 on domain   2:    1.33040 elapsed seconds
Timing for main: time 2016-02-05_17:45:33 on domain   3:     .13552 elapsed seconds
Timing for main: time 2016-02-05_17:45:46 on domain   3:     .12044 elapsed seconds
Timing for main: time 2016-02-05_17:46:00 on domain   3:     .11929 elapsed seconds
Timing for main: time 2016-02-05_17:45:40 on domain   4:     .15424 elapsed seconds
Timing for main: time 2016-02-05_17:46:00 on domain   4:     .14140 elapsed seconds
Timing for main: time 2016-02-05_17:46:00 on domain   2:    1.23468 elapsed seconds
Timing for main: time 2016-02-05_17:46:00 on domain   1:    4.11393 elapsed seconds
Timing for main: time 2016-02-05_17:46:13 on domain   3:     .13529 elapsed seconds
Timing for main: time 2016-02-05_17:46:26 on domain   3:     .11989 elapsed seconds
Timing for main: time 2016-02-05_17:46:40 on domain   3:     .11991 elapsed seconds
Timing for main: time 2016-02-05_17:46:20 on domain   4:     .15001 elapsed seconds
Timing for main: time 2016-02-05_17:46:40 on domain   4:     .14294 elapsed seconds
Timing for main: time 2016-02-05_17:46:40 on domain   2:    1.23873 elapsed seconds
Timing for main: time 2016-02-05_17:46:53 on domain   3:     .13561 elapsed seconds
Timing for main: time 2016-02-05_17:47:06 on domain   3:     .11968 elapsed seconds
Timing for main: time 2016-02-05_17:47:20 on domain   3:     .11992 elapsed seconds
Timing for main: time 2016-02-05_17:47:00 on domain   4:     .14950 elapsed seconds
Timing for main: time 2016-02-05_17:47:20 on domain   4:     .14498 elapsed seconds
Timing for main: time 2016-02-05_17:47:20 on domain   2:    1.23410 elapsed seconds
Timing for main: time 2016-02-05_17:47:33 on domain   3:     .14032 elapsed seconds
Timing for main: time 2016-02-05_17:47:46 on domain   3:     .12130 elapsed seconds
Timing for main: time 2016-02-05_17:48:00 on domain   3:     .12008 elapsed seconds
Timing for main: time 2016-02-05_17:47:40 on domain   4:     .15007 elapsed seconds
Timing for main: time 2016-02-05_17:48:00 on domain   4:     .14313 elapsed seconds
Timing for main: time 2016-02-05_17:48:00 on domain   2:    1.23932 elapsed seconds
Timing for main: time 2016-02-05_17:48:00 on domain   1:    4.00080 elapsed seconds
Timing for main: time 2016-02-05_17:48:13 on domain   3:     .13535 elapsed seconds
Timing for main: time 2016-02-05_17:48:26 on domain   3:     .11975 elapsed seconds
Timing for main: time 2016-02-05_17:48:40 on domain   3:     .12492 elapsed seconds
Timing for main: time 2016-02-05_17:48:20 on domain   4:     .14993 elapsed seconds
Timing for main: time 2016-02-05_17:48:40 on domain   4:     .14345 elapsed seconds
Timing for main: time 2016-02-05_17:48:40 on domain   2:    1.24177 elapsed seconds
Timing for main: time 2016-02-05_17:48:53 on domain   3:     .13508 elapsed seconds
Timing for main: time 2016-02-05_17:49:06 on domain   3:     .12098 elapsed seconds
Timing for main: time 2016-02-05_17:49:20 on domain   3:     .12903 elapsed seconds
Timing for main: time 2016-02-05_17:49:00 on domain   4:     .15548 elapsed seconds
Timing for main: time 2016-02-05_17:49:20 on domain   4:     .14085 elapsed seconds
Timing for main: time 2016-02-05_17:49:20 on domain   2:    1.24579 elapsed seconds
Timing for main: time 2016-02-05_17:49:33 on domain   3:     .13516 elapsed seconds
Timing for main: time 2016-02-05_17:49:46 on domain   3:     .11997 elapsed seconds
Timing for main: time 2016-02-05_17:50:00 on domain   3:     .11988 elapsed seconds
Timing for main: time 2016-02-05_17:49:40 on domain   4:     .14984 elapsed seconds
Timing for main: time 2016-02-05_17:50:00 on domain   4:     .14909 elapsed seconds
Timing for main: time 2016-02-05_17:50:00 on domain   2:    1.23726 elapsed seconds
Timing for main: time 2016-02-05_17:50:00 on domain   1:    3.99784 elapsed seconds
Timing for main: time 2016-02-05_17:50:13 on domain   3:     .13547 elapsed seconds
Timing for main: time 2016-02-05_17:50:26 on domain   3:     .12033 elapsed seconds
Timing for main: time 2016-02-05_17:50:40 on domain   3:     .12027 elapsed seconds
Timing for main: time 2016-02-05_17:50:20 on domain   4:     .14976 elapsed seconds
Timing for main: time 2016-02-05_17:50:40 on domain   4:     .14287 elapsed seconds
Timing for main: time 2016-02-05_17:50:40 on domain   2:    1.27073 elapsed seconds
Timing for main: time 2016-02-05_17:50:53 on domain   3:     .13548 elapsed seconds
Timing for main: time 2016-02-05_17:51:06 on domain   3:     .12047 elapsed seconds
Timing for main: time 2016-02-05_17:51:20 on domain   3:     .12064 elapsed seconds
Timing for main: time 2016-02-05_17:51:00 on domain   4:     .14981 elapsed seconds
Timing for main: time 2016-02-05_17:51:20 on domain   4:     .14289 elapsed seconds
Timing for main: time 2016-02-05_17:51:20 on domain   2:    1.23361 elapsed seconds
Timing for main: time 2016-02-05_17:51:33 on domain   3:     .13519 elapsed seconds
Timing for main: time 2016-02-05_17:51:46 on domain   3:     .12441 elapsed seconds
Timing for main: time 2016-02-05_17:52:00 on domain   3:     .12622 elapsed seconds
Timing for main: time 2016-02-05_17:51:40 on domain   4:     .14964 elapsed seconds
Timing for main: time 2016-02-05_17:52:00 on domain   4:     .14299 elapsed seconds
Timing for main: time 2016-02-05_17:52:00 on domain   2:    1.24906 elapsed seconds
Timing for main: time 2016-02-05_17:52:00 on domain   1:    4.02627 elapsed seconds
Timing for main: time 2016-02-05_17:52:13 on domain   3:     .13554 elapsed seconds
Timing for main: time 2016-02-05_17:52:26 on domain   3:     .11982 elapsed seconds
Timing for main: time 2016-02-05_17:52:40 on domain   3:     .12485 elapsed seconds
Timing for main: time 2016-02-05_17:52:20 on domain   4:     .15047 elapsed seconds
Timing for main: time 2016-02-05_17:52:40 on domain   4:     .14265 elapsed seconds
Timing for main: time 2016-02-05_17:52:40 on domain   2:    1.23856 elapsed seconds
Timing for main: time 2016-02-05_17:52:53 on domain   3:     .13869 elapsed seconds
Timing for main: time 2016-02-05_17:53:06 on domain   3:     .12314 elapsed seconds
Timing for main: time 2016-02-05_17:53:20 on domain   3:     .12234 elapsed seconds
Timing for main: time 2016-02-05_17:53:00 on domain   4:     .15240 elapsed seconds
Timing for main: time 2016-02-05_17:53:20 on domain   4:     .14097 elapsed seconds
Timing for main: time 2016-02-05_17:53:20 on domain   2:    1.24205 elapsed seconds
Timing for main: time 2016-02-05_17:53:33 on domain   3:     .13509 elapsed seconds
Timing for main: time 2016-02-05_17:53:46 on domain   3:     .12753 elapsed seconds
Timing for main: time 2016-02-05_17:54:00 on domain   3:     .12346 elapsed seconds
Timing for main: time 2016-02-05_17:53:40 on domain   4:     .15244 elapsed seconds
Timing for main: time 2016-02-05_17:54:00 on domain   4:     .14984 elapsed seconds
Timing for main: time 2016-02-05_17:54:00 on domain   2:    1.25333 elapsed seconds
Timing for main: time 2016-02-05_17:54:00 on domain   1:    4.01053 elapsed seconds
Timing for main: time 2016-02-05_17:54:13 on domain   3:     .13570 elapsed seconds
Timing for main: time 2016-02-05_17:54:26 on domain   3:     .12046 elapsed seconds
Timing for main: time 2016-02-05_17:54:40 on domain   3:     .11991 elapsed seconds
Timing for main: time 2016-02-05_17:54:20 on domain   4:     .14999 elapsed seconds
Timing for main: time 2016-02-05_17:54:40 on domain   4:     .14303 elapsed seconds
Timing for main: time 2016-02-05_17:54:40 on domain   2:    1.23577 elapsed seconds
Timing for main: time 2016-02-05_17:54:53 on domain   3:     .14773 elapsed seconds
Timing for main: time 2016-02-05_17:55:06 on domain   3:     .12790 elapsed seconds
Timing for main: time 2016-02-05_17:55:20 on domain   3:     .12093 elapsed seconds
Timing for main: time 2016-02-05_17:55:00 on domain   4:     .15619 elapsed seconds
Timing for main: time 2016-02-05_17:55:20 on domain   4:     .14472 elapsed seconds
Timing for main: time 2016-02-05_17:55:20 on domain   2:    1.27061 elapsed seconds
Timing for main: time 2016-02-05_17:55:33 on domain   3:     .13664 elapsed seconds
Timing for main: time 2016-02-05_17:55:46 on domain   3:     .12349 elapsed seconds
Timing for main: time 2016-02-05_17:56:00 on domain   3:     .11997 elapsed seconds
Timing for main: time 2016-02-05_17:55:40 on domain   4:     .15065 elapsed seconds
Timing for main: time 2016-02-05_17:56:00 on domain   4:     .14305 elapsed seconds
Timing for main: time 2016-02-05_17:56:00 on domain   2:    1.23606 elapsed seconds
Timing for main: time 2016-02-05_17:56:00 on domain   1:    4.01500 elapsed seconds
Timing for main: time 2016-02-05_17:56:13 on domain   3:     .13551 elapsed seconds
Timing for main: time 2016-02-05_17:56:26 on domain   3:     .11992 elapsed seconds
Timing for main: time 2016-02-05_17:56:40 on domain   3:     .11993 elapsed seconds
Timing for main: time 2016-02-05_17:56:20 on domain   4:     .15791 elapsed seconds
Timing for main: time 2016-02-05_17:56:40 on domain   4:     .15648 elapsed seconds
Timing for main: time 2016-02-05_17:56:40 on domain   2:    1.25447 elapsed seconds
Timing for main: time 2016-02-05_17:56:53 on domain   3:     .13540 elapsed seconds
Timing for main: time 2016-02-05_17:57:06 on domain   3:     .11968 elapsed seconds
Timing for main: time 2016-02-05_17:57:20 on domain   3:     .12112 elapsed seconds
Timing for main: time 2016-02-05_17:57:00 on domain   4:     .15013 elapsed seconds
Timing for main: time 2016-02-05_17:57:20 on domain   4:     .14335 elapsed seconds
Timing for main: time 2016-02-05_17:57:20 on domain   2:    1.23730 elapsed seconds
Timing for main: time 2016-02-05_17:57:33 on domain   3:     .13532 elapsed seconds
Timing for main: time 2016-02-05_17:57:46 on domain   3:     .12760 elapsed seconds
Timing for main: time 2016-02-05_17:58:00 on domain   3:     .12027 elapsed seconds
Timing for main: time 2016-02-05_17:57:40 on domain   4:     .15023 elapsed seconds
Timing for main: time 2016-02-05_17:58:00 on domain   4:     .14316 elapsed seconds
Timing for main: time 2016-02-05_17:58:00 on domain   2:    1.23933 elapsed seconds
Timing for main: time 2016-02-05_17:58:00 on domain   1:    4.00756 elapsed seconds
  photolysis_driver: called for domain  1
Timing for main: time 2016-02-05_17:58:13 on domain   3:     .13524 elapsed seconds
Timing for main: time 2016-02-05_17:58:26 on domain   3:     .12357 elapsed seconds
Timing for main: time 2016-02-05_17:58:40 on domain   3:     .11986 elapsed seconds
Timing for main: time 2016-02-05_17:58:20 on domain   4:     .15015 elapsed seconds
Timing for main: time 2016-02-05_17:58:40 on domain   4:     .14286 elapsed seconds
Timing for main: time 2016-02-05_17:58:40 on domain   2:    1.23732 elapsed seconds
Timing for main: time 2016-02-05_17:58:53 on domain   3:     .13563 elapsed seconds
Timing for main: time 2016-02-05_17:59:06 on domain   3:     .11995 elapsed seconds
Timing for main: time 2016-02-05_17:59:20 on domain   3:     .12330 elapsed seconds
Timing for main: time 2016-02-05_17:59:00 on domain   4:     .15021 elapsed seconds
Timing for main: time 2016-02-05_17:59:20 on domain   4:     .14547 elapsed seconds
Timing for main: time 2016-02-05_17:59:20 on domain   2:    1.23804 elapsed seconds
  photolysis_driver: called for domain  2
Timing for main: time 2016-02-05_17:59:33 on domain   3:     .13879 elapsed seconds
Timing for main: time 2016-02-05_17:59:46 on domain   3:     .11912 elapsed seconds
  photolysis_driver: called for domain  3
Timing for main: time 2016-02-05_18:00:00 on domain   3:     .65999 elapsed seconds
Timing for Writing wrfout_d03_2016-02-05_18:00:00 for domain        3:    2.07000 elapsed seconds
Timing for main: time 2016-02-05_17:59:40 on domain   4:     .16676 elapsed seconds
  photolysis_driver: called for domain  4
Timing for main: time 2016-02-05_18:00:00 on domain   4:     .79384 elapsed seconds
Timing for Writing wrfout_d04_2016-02-05_18:00:00 for domain        4:    2.19949 elapsed seconds
Timing for main: time 2016-02-05_18:00:00 on domain   2:    7.38908 elapsed seconds
Timing for Writing wrfout_d02_2016-02-05_18:00:00 for domain        2:    2.98274 elapsed seconds
Timing for main: time 2016-02-05_18:00:00 on domain   1:   13.47480 elapsed seconds
Timing for Writing wrfout_d01_2016-02-05_18:00:00 for domain        1:    2.49253 elapsed seconds
 d01 2016-02-05_18:00:00 wrf: SUCCESS COMPLETE WRF
