taskid: 0 hostname: p10a51.pbm.ihost.com
  Ntasks in X  10 , ntasks in Y  12
 Setting blank km_opt entries to domain #1 values.
  --> The km_opt entry in the namelist.input is now max_domains.
 Setting blank diff_opt entries to domain #1 values.
  --> The diff_opt entry in the namelist.input is now max_domains.
 --- WARNING: traj_opt is zero, but num_traj is not zero; setting num_traj to zero.
 --- NOTE: hypsometric_opt is 2, setting adjust_heights = F
 --- NOTE: sst_update is 0, setting io_form_auxinput4 = 0 and auxinput4_interval = 0 for all domains
 --- NOTE: sst_update is 0, setting io_form_auxinput4 = 0 and auxinput4_interval = 0 for all domains
 --- NOTE: sst_update is 0, setting io_form_auxinput4 = 0 and auxinput4_interval = 0 for all domains
 --- NOTE: sst_update is 0, setting io_form_auxinput4 = 0 and auxinput4_interval = 0 for all domains
 --- NOTE: grid_fdda is 0 for domain      1, setting gfdda interval and ending time to 0 for that domain.
 --- NOTE: both grid_sfdda and pxlsm_soil_nudge are 0 for domain      1, setting sgfdda interval and ending time to 0 for that domain.
 --- NOTE: obs_nudge_opt is 0 for domain      1, setting obs nudging interval and ending time to 0 for that domain.
 --- NOTE: grid_fdda is 0 for domain      2, setting gfdda interval and ending time to 0 for that domain.
 --- NOTE: both grid_sfdda and pxlsm_soil_nudge are 0 for domain      2, setting sgfdda interval and ending time to 0 for that domain.
 --- NOTE: obs_nudge_opt is 0 for domain      2, setting obs nudging interval and ending time to 0 for that domain.
 --- NOTE: grid_fdda is 0 for domain      3, setting gfdda interval and ending time to 0 for that domain.
 --- NOTE: both grid_sfdda and pxlsm_soil_nudge are 0 for domain      3, setting sgfdda interval and ending time to 0 for that domain.
 --- NOTE: obs_nudge_opt is 0 for domain      3, setting obs nudging interval and ending time to 0 for that domain.
 --- NOTE: grid_fdda is 0 for domain      4, setting gfdda interval and ending time to 0 for that domain.
 --- NOTE: both grid_sfdda and pxlsm_soil_nudge are 0 for domain      4, setting sgfdda interval and ending time to 0 for that domain.
 --- NOTE: obs_nudge_opt is 0 for domain      4, setting obs nudging interval and ending time to 0 for that domain.
 bl_pbl_physics /= 4, implies mfshconv must be 0, resetting
 --- NOTE: num_soil_layers has been set to      4
 WRF V3.6 MODEL
  *************************************
  Parent domain
  ids,ide,jds,jde  1 271 1 181
  ims,ime,jms,jme  -4 34 -4 22
  ips,ipe,jps,jpe  1 27 1 15
  *************************************
 DYNAMICS OPTION: Eulerian Mass Coordinate
    alloc_space_field: domain  1 ,  106461056  bytes allocated
   med_initialdata_input: calling input_input
Timing for processing wrfinput file (stream 0) for domain        1:    4.48722 elapsed seconds
 INPUT LandUse = "USGS"
  LANDUSE TYPE = "USGS" FOUND 33  CATEGORIES 2  SEASONS WATER CATEGORY =  16  SNOW CATEGORY =  24
 INITIALIZE THREE Noah LSM RELATED TABLES
  LANDUSE TYPE = USGS FOUND 27  CATEGORIES
  INPUT SOIL TEXTURE CLASSIFICATION = STAS
  SOIL TEXTURE CLASSIFICATION = STAS FOUND 19  CATEGORIES
 *********************************************************************
 *             PROGRAM:WRF/CHEM V3.6 MODEL
 *                                                                   *
 *    PLEASE REPORT ANY BUGS TO WRF/CHEM HELP at                     *
 *                                                                   *
 *              wrfchemhelp.gsd@noaa.gov                             *
 *                                                                   *
 *********************************************************************
 WARNING: dust option 1 currently works only with the GOCART aerosol option.
 WARNING: sea salt option 1 currently works only with the GOCART aerosol option.
  *************************************
  Nesting domain
  ids,ide,jds,jde  1 361 1 253
  ims,ime,jms,jme  -4 48 -4 33
  ips,ipe,jps,jpe  1 36 1 21
  INTERMEDIATE domain
  ids,ide,jds,jde  74 199 47 136
  ims,ime,jms,jme  69 97 42 65
  ips,ipe,jps,jpe  72 87 45 55
  *************************************
 d01 2016-02-05_12:00:00  alloc_space_field: domain  2 ,  198353180  bytes allocated
 d01 2016-02-05_12:00:00  alloc_space_field: domain  2 ,  8766816  bytes allocated
 d01 2016-02-05_12:00:00 *** Initializing nest domain # 2 from an input file. ***
 d01 2016-02-05_12:00:00 med_initialdata_input: calling input_input
Timing for processing wrfinput file (stream 0) for domain        2:    6.87381 elapsed seconds
 INPUT LandUse = "USGS"
  LANDUSE TYPE = "USGS" FOUND 33  CATEGORIES 2  SEASONS WATER CATEGORY =  16  SNOW CATEGORY =  24
 INITIALIZE THREE Noah LSM RELATED TABLES
  LANDUSE TYPE = USGS FOUND 27  CATEGORIES
  INPUT SOIL TEXTURE CLASSIFICATION = STAS
  SOIL TEXTURE CLASSIFICATION = STAS FOUND 19  CATEGORIES
 *********************************************************************
 *             PROGRAM:WRF/CHEM V3.6 MODEL
 *                                                                   *
 *    PLEASE REPORT ANY BUGS TO WRF/CHEM HELP at                     *
 *                                                                   *
 *              wrfchemhelp.gsd@noaa.gov                             *
 *                                                                   *
 *********************************************************************
 WARNING: dust option 1 currently works only with the GOCART aerosol option.
 WARNING: sea salt option 1 currently works only with the GOCART aerosol option.
 INPUT LandUse = "USGS"
  LANDUSE TYPE = "USGS" FOUND 33  CATEGORIES 2  SEASONS WATER CATEGORY =  16  SNOW CATEGORY =  24
 INITIALIZE THREE Noah LSM RELATED TABLES
  LANDUSE TYPE = USGS FOUND 27  CATEGORIES
  INPUT SOIL TEXTURE CLASSIFICATION = STAS
  SOIL TEXTURE CLASSIFICATION = STAS FOUND 19  CATEGORIES
 *********************************************************************
 *             PROGRAM:WRF/CHEM V3.6 MODEL
 *                                                                   *
 *    PLEASE REPORT ANY BUGS TO WRF/CHEM HELP at                     *
 *                                                                   *
 *              wrfchemhelp.gsd@noaa.gov                             *
 *                                                                   *
 *********************************************************************
 WARNING: dust option 1 currently works only with the GOCART aerosol option.
 WARNING: sea salt option 1 currently works only with the GOCART aerosol option.
 INPUT LandUse = "USGS"
  LANDUSE TYPE = "USGS" FOUND 33  CATEGORIES 2  SEASONS WATER CATEGORY =  16  SNOW CATEGORY =  24
 INITIALIZE THREE Noah LSM RELATED TABLES
  LANDUSE TYPE = USGS FOUND 27  CATEGORIES
  INPUT SOIL TEXTURE CLASSIFICATION = STAS
  SOIL TEXTURE CLASSIFICATION = STAS FOUND 19  CATEGORIES
 *********************************************************************
 *             PROGRAM:WRF/CHEM V3.6 MODEL
 *                                                                   *
 *    PLEASE REPORT ANY BUGS TO WRF/CHEM HELP at                     *
 *                                                                   *
 *              wrfchemhelp.gsd@noaa.gov                             *
 *                                                                   *
 *********************************************************************
 WARNING: dust option 1 currently works only with the GOCART aerosol option.
 WARNING: sea salt option 1 currently works only with the GOCART aerosol option.
Timing for Writing wrfout_d01_2016-02-05_12:00:00 for domain        1:    1.32466 elapsed seconds
  mediation_integrate: med_read_wrf_chem_emissions: Open file wrfchemi_12z_d01
  HOURLY EMISSIONS UPDATE TIME         .0        .0
 mediation_integrate: med_read_wrf_chem_emissions: Read emissions for time 2016-02-05_12:00:00
 **WARNING** Time in input file not being checked **WARNING**
Timing for processing lateral boundary for domain        1:    3.35649 elapsed seconds
  Tile Strategy is not specified. Assuming 1D-Y
 WRF TILE   1 IS      1 IE     27 JS      1 JE     15
 WRF NUMBER OF TILES =   1
  photolysis_driver: called for domain  1
  *************************************
  Nesting domain
  ids,ide,jds,jde  1 307 1 241
  ims,ime,jms,jme  -4 42 -4 30
  ips,ipe,jps,jpe  1 31 1 20
  INTERMEDIATE domain
  ids,ide,jds,jde  124 231 35 120
  ims,ime,jms,jme  119 145 30 53
  ips,ipe,jps,jpe  122 135 33 43
  *************************************
 d02 2016-02-05_12:00:00  alloc_space_field: domain  3 ,  163209716  bytes allocated
 d02 2016-02-05_12:00:00  alloc_space_field: domain  3 ,  8162208  bytes allocated
 d02 2016-02-05_12:00:00 *** Initializing nest domain # 3 from an input file. ***
 d02 2016-02-05_12:00:00 med_initialdata_input: calling input_input
Timing for processing wrfinput file (stream 0) for domain        3:    5.74617 elapsed seconds
 INPUT LandUse = "USGS"
  LANDUSE TYPE = "USGS" FOUND 33  CATEGORIES 2  SEASONS WATER CATEGORY =  16  SNOW CATEGORY =  24
 INITIALIZE THREE Noah LSM RELATED TABLES
  LANDUSE TYPE = USGS FOUND 27  CATEGORIES
  INPUT SOIL TEXTURE CLASSIFICATION = STAS
  SOIL TEXTURE CLASSIFICATION = STAS FOUND 19  CATEGORIES
 *********************************************************************
 *             PROGRAM:WRF/CHEM V3.6 MODEL
 *                                                                   *
 *    PLEASE REPORT ANY BUGS TO WRF/CHEM HELP at                     *
 *                                                                   *
 *              wrfchemhelp.gsd@noaa.gov                             *
 *                                                                   *
 *********************************************************************
 WARNING: dust option 1 currently works only with the GOCART aerosol option.
 WARNING: sea salt option 1 currently works only with the GOCART aerosol option.
 INPUT LandUse = "USGS"
  LANDUSE TYPE = "USGS" FOUND 33  CATEGORIES 2  SEASONS WATER CATEGORY =  16  SNOW CATEGORY =  24
 INITIALIZE THREE Noah LSM RELATED TABLES
  LANDUSE TYPE = USGS FOUND 27  CATEGORIES
  INPUT SOIL TEXTURE CLASSIFICATION = STAS
  SOIL TEXTURE CLASSIFICATION = STAS FOUND 19  CATEGORIES
 *********************************************************************
 *             PROGRAM:WRF/CHEM V3.6 MODEL
 *                                                                   *
 *    PLEASE REPORT ANY BUGS TO WRF/CHEM HELP at                     *
 *                                                                   *
 *              wrfchemhelp.gsd@noaa.gov                             *
 *                                                                   *
 *********************************************************************
 WARNING: dust option 1 currently works only with the GOCART aerosol option.
 WARNING: sea salt option 1 currently works only with the GOCART aerosol option.
 INPUT LandUse = "USGS"
  LANDUSE TYPE = "USGS" FOUND 33  CATEGORIES 2  SEASONS WATER CATEGORY =  16  SNOW CATEGORY =  24
 INITIALIZE THREE Noah LSM RELATED TABLES
  LANDUSE TYPE = USGS FOUND 27  CATEGORIES
  INPUT SOIL TEXTURE CLASSIFICATION = STAS
  SOIL TEXTURE CLASSIFICATION = STAS FOUND 19  CATEGORIES
 *********************************************************************
 *             PROGRAM:WRF/CHEM V3.6 MODEL
 *                                                                   *
 *    PLEASE REPORT ANY BUGS TO WRF/CHEM HELP at                     *
 *                                                                   *
 *              wrfchemhelp.gsd@noaa.gov                             *
 *                                                                   *
 *********************************************************************
 WARNING: dust option 1 currently works only with the GOCART aerosol option.
 WARNING: sea salt option 1 currently works only with the GOCART aerosol option.
  *************************************
  Nesting domain
  ids,ide,jds,jde  1 217 1 388
  ims,ime,jms,jme  -4 33 -4 45
  ips,ipe,jps,jpe  1 22 1 33
  INTERMEDIATE domain
  ids,ide,jds,jde  225 302 83 217
  ims,ime,jms,jme  220 243 78 105
  ips,ipe,jps,jpe  223 233 81 95
  *************************************
 d02 2016-02-05_12:00:00  alloc_space_field: domain  4 ,  187462100  bytes allocated
 d02 2016-02-05_12:00:00  alloc_space_field: domain  4 ,  8464512  bytes allocated
 d02 2016-02-05_12:00:00 *** Initializing nest domain # 4 from an input file. ***
 d02 2016-02-05_12:00:00 med_initialdata_input: calling input_input
Timing for processing wrfinput file (stream 0) for domain        4:    7.34448 elapsed seconds
 INPUT LandUse = "USGS"
  LANDUSE TYPE = "USGS" FOUND 33  CATEGORIES 2  SEASONS WATER CATEGORY =  16  SNOW CATEGORY =  24
 INITIALIZE THREE Noah LSM RELATED TABLES
  LANDUSE TYPE = USGS FOUND 27  CATEGORIES
  INPUT SOIL TEXTURE CLASSIFICATION = STAS
  SOIL TEXTURE CLASSIFICATION = STAS FOUND 19  CATEGORIES
 *********************************************************************
 *             PROGRAM:WRF/CHEM V3.6 MODEL
 *                                                                   *
 *    PLEASE REPORT ANY BUGS TO WRF/CHEM HELP at                     *
 *                                                                   *
 *              wrfchemhelp.gsd@noaa.gov                             *
 *                                                                   *
 *********************************************************************
 WARNING: dust option 1 currently works only with the GOCART aerosol option.
 WARNING: sea salt option 1 currently works only with the GOCART aerosol option.
 INPUT LandUse = "USGS"
  LANDUSE TYPE = "USGS" FOUND 33  CATEGORIES 2  SEASONS WATER CATEGORY =  16  SNOW CATEGORY =  24
 INITIALIZE THREE Noah LSM RELATED TABLES
  LANDUSE TYPE = USGS FOUND 27  CATEGORIES
  INPUT SOIL TEXTURE CLASSIFICATION = STAS
  SOIL TEXTURE CLASSIFICATION = STAS FOUND 19  CATEGORIES
 *********************************************************************
 *             PROGRAM:WRF/CHEM V3.6 MODEL
 *                                                                   *
 *    PLEASE REPORT ANY BUGS TO WRF/CHEM HELP at                     *
 *                                                                   *
 *              wrfchemhelp.gsd@noaa.gov                             *
 *                                                                   *
 *********************************************************************
 WARNING: dust option 1 currently works only with the GOCART aerosol option.
 WARNING: sea salt option 1 currently works only with the GOCART aerosol option.
 INPUT LandUse = "USGS"
  LANDUSE TYPE = "USGS" FOUND 33  CATEGORIES 2  SEASONS WATER CATEGORY =  16  SNOW CATEGORY =  24
 INITIALIZE THREE Noah LSM RELATED TABLES
  LANDUSE TYPE = USGS FOUND 27  CATEGORIES
  INPUT SOIL TEXTURE CLASSIFICATION = STAS
  SOIL TEXTURE CLASSIFICATION = STAS FOUND 19  CATEGORIES
 *********************************************************************
 *             PROGRAM:WRF/CHEM V3.6 MODEL
 *                                                                   *
 *    PLEASE REPORT ANY BUGS TO WRF/CHEM HELP at                     *
 *                                                                   *
 *              wrfchemhelp.gsd@noaa.gov                             *
 *                                                                   *
 *********************************************************************
 WARNING: dust option 1 currently works only with the GOCART aerosol option.
 WARNING: sea salt option 1 currently works only with the GOCART aerosol option.
Timing for Writing wrfout_d02_2016-02-05_12:00:00 for domain        2:    1.88730 elapsed seconds
  mediation_integrate: med_read_wrf_chem_emissions: Open file wrfchemi_12z_d02
  HOURLY EMISSIONS UPDATE TIME         .0        .0
 mediation_integrate: med_read_wrf_chem_emissions: Read emissions for time 2016-02-05_12:00:00
 **WARNING** Time in input file not being checked **WARNING**
  Tile Strategy is not specified. Assuming 1D-Y
 WRF TILE   1 IS      1 IE     36 JS      1 JE     21
 WRF NUMBER OF TILES =   1
  photolysis_driver: called for domain  2
Timing for Writing wrfout_d03_2016-02-05_12:00:00 for domain        3:    1.72586 elapsed seconds
  mediation_integrate: med_read_wrf_chem_emissions: Open file wrfchemi_12z_d03
  HOURLY EMISSIONS UPDATE TIME         .0        .0
 mediation_integrate: med_read_wrf_chem_emissions: Read emissions for time 2016-02-05_12:00:00
 **WARNING** Time in input file not being checked **WARNING**
  Tile Strategy is not specified. Assuming 1D-Y
 WRF TILE   1 IS      1 IE     31 JS      1 JE     20
 WRF NUMBER OF TILES =   1
  photolysis_driver: called for domain  3
Timing for main: time 2016-02-05_12:00:13 on domain   3:    5.09900 elapsed seconds
Timing for main: time 2016-02-05_12:00:26 on domain   3:     .21316 elapsed seconds
Timing for main: time 2016-02-05_12:00:40 on domain   3:     .23156 elapsed seconds
Timing for Writing wrfout_d04_2016-02-05_12:00:00 for domain        4:    1.87485 elapsed seconds
  mediation_integrate: med_read_wrf_chem_emissions: Open file wrfchemi_12z_d04
  HOURLY EMISSIONS UPDATE TIME         .0        .0
 mediation_integrate: med_read_wrf_chem_emissions: Read emissions for time 2016-02-05_12:00:00
 **WARNING** Time in input file not being checked **WARNING**
  Tile Strategy is not specified. Assuming 1D-Y
 WRF TILE   1 IS      1 IE     22 JS      1 JE     33
 WRF NUMBER OF TILES =   1
  photolysis_driver: called for domain  4
Timing for main: time 2016-02-05_12:00:20 on domain   4:    7.24029 elapsed seconds
Timing for main: time 2016-02-05_12:00:40 on domain   4:     .26524 elapsed seconds
Timing for main: time 2016-02-05_12:00:40 on domain   2:   35.66205 elapsed seconds
Timing for main: time 2016-02-05_12:00:53 on domain   3:     .25307 elapsed seconds
Timing for main: time 2016-02-05_12:01:06 on domain   3:     .23684 elapsed seconds
Timing for main: time 2016-02-05_12:01:20 on domain   3:     .23607 elapsed seconds
Timing for main: time 2016-02-05_12:01:00 on domain   4:     .29054 elapsed seconds
Timing for main: time 2016-02-05_12:01:20 on domain   4:     .28351 elapsed seconds
Timing for main: time 2016-02-05_12:01:20 on domain   2:    2.07720 elapsed seconds
Timing for main: time 2016-02-05_12:01:33 on domain   3:     .24555 elapsed seconds
Timing for main: time 2016-02-05_12:01:46 on domain   3:     .24502 elapsed seconds
Timing for main: time 2016-02-05_12:02:00 on domain   3:     .23892 elapsed seconds
Timing for main: time 2016-02-05_12:01:40 on domain   4:     .29701 elapsed seconds
Timing for main: time 2016-02-05_12:02:00 on domain   4:     .28579 elapsed seconds
Timing for main: time 2016-02-05_12:02:00 on domain   2:    2.24620 elapsed seconds
Timing for main: time 2016-02-05_12:02:00 on domain   1:   57.20825 elapsed seconds
Timing for main: time 2016-02-05_12:02:13 on domain   3:     .24485 elapsed seconds
Timing for main: time 2016-02-05_12:02:26 on domain   3:     .23152 elapsed seconds
Timing for main: time 2016-02-05_12:02:40 on domain   3:     .23145 elapsed seconds
Timing for main: time 2016-02-05_12:02:20 on domain   4:     .28717 elapsed seconds
Timing for main: time 2016-02-05_12:02:40 on domain   4:     .27656 elapsed seconds
Timing for main: time 2016-02-05_12:02:40 on domain   2:    2.11360 elapsed seconds
Timing for main: time 2016-02-05_12:02:53 on domain   3:     .24462 elapsed seconds
Timing for main: time 2016-02-05_12:03:06 on domain   3:     .23186 elapsed seconds
Timing for main: time 2016-02-05_12:03:20 on domain   3:     .23158 elapsed seconds
Timing for main: time 2016-02-05_12:03:00 on domain   4:     .29287 elapsed seconds
Timing for main: time 2016-02-05_12:03:20 on domain   4:     .27570 elapsed seconds
Timing for main: time 2016-02-05_12:03:20 on domain   2:    2.09395 elapsed seconds
Timing for main: time 2016-02-05_12:03:33 on domain   3:     .24444 elapsed seconds
Timing for main: time 2016-02-05_12:03:46 on domain   3:     .23185 elapsed seconds
Timing for main: time 2016-02-05_12:04:00 on domain   3:     .23157 elapsed seconds
Timing for main: time 2016-02-05_12:03:40 on domain   4:     .28763 elapsed seconds
Timing for main: time 2016-02-05_12:04:00 on domain   4:     .27614 elapsed seconds
Timing for main: time 2016-02-05_12:04:00 on domain   2:    2.08696 elapsed seconds
Timing for main: time 2016-02-05_12:04:00 on domain   1:    6.68798 elapsed seconds
Timing for main: time 2016-02-05_12:04:13 on domain   3:     .24455 elapsed seconds
Timing for main: time 2016-02-05_12:04:26 on domain   3:     .23450 elapsed seconds
Timing for main: time 2016-02-05_12:04:40 on domain   3:     .23122 elapsed seconds
Timing for main: time 2016-02-05_12:04:20 on domain   4:     .28982 elapsed seconds
Timing for main: time 2016-02-05_12:04:40 on domain   4:     .27537 elapsed seconds
Timing for main: time 2016-02-05_12:04:40 on domain   2:    2.11067 elapsed seconds
Timing for main: time 2016-02-05_12:04:53 on domain   3:     .24408 elapsed seconds
Timing for main: time 2016-02-05_12:05:06 on domain   3:     .24170 elapsed seconds
Timing for main: time 2016-02-05_12:05:20 on domain   3:     .23105 elapsed seconds
Timing for main: time 2016-02-05_12:05:00 on domain   4:     .30243 elapsed seconds
Timing for main: time 2016-02-05_12:05:20 on domain   4:     .27545 elapsed seconds
Timing for main: time 2016-02-05_12:05:20 on domain   2:    2.12459 elapsed seconds
Timing for main: time 2016-02-05_12:05:33 on domain   3:     .24419 elapsed seconds
Timing for main: time 2016-02-05_12:05:46 on domain   3:     .23171 elapsed seconds
Timing for main: time 2016-02-05_12:06:00 on domain   3:     .23157 elapsed seconds
Timing for main: time 2016-02-05_12:05:40 on domain   4:     .28808 elapsed seconds
Timing for main: time 2016-02-05_12:06:00 on domain   4:     .27525 elapsed seconds
Timing for main: time 2016-02-05_12:06:00 on domain   2:    2.08911 elapsed seconds
Timing for main: time 2016-02-05_12:06:00 on domain   1:    6.74581 elapsed seconds
Timing for main: time 2016-02-05_12:06:13 on domain   3:     .23726 elapsed seconds
Timing for main: time 2016-02-05_12:06:26 on domain   3:     .23136 elapsed seconds
Timing for main: time 2016-02-05_12:06:40 on domain   3:     .23130 elapsed seconds
Timing for main: time 2016-02-05_12:06:20 on domain   4:     .29291 elapsed seconds
Timing for main: time 2016-02-05_12:06:40 on domain   4:     .27498 elapsed seconds
Timing for main: time 2016-02-05_12:06:40 on domain   2:    2.11337 elapsed seconds
Timing for main: time 2016-02-05_12:06:53 on domain   3:     .24416 elapsed seconds
Timing for main: time 2016-02-05_12:07:06 on domain   3:     .23421 elapsed seconds
Timing for main: time 2016-02-05_12:07:20 on domain   3:     .23142 elapsed seconds
Timing for main: time 2016-02-05_12:07:00 on domain   4:     .28827 elapsed seconds
Timing for main: time 2016-02-05_12:07:20 on domain   4:     .36935 elapsed seconds
Timing for main: time 2016-02-05_12:07:20 on domain   2:    2.18609 elapsed seconds
Timing for main: time 2016-02-05_12:07:33 on domain   3:     .24467 elapsed seconds
Timing for main: time 2016-02-05_12:07:46 on domain   3:     .23174 elapsed seconds
Timing for main: time 2016-02-05_12:08:00 on domain   3:     .23152 elapsed seconds
Timing for main: time 2016-02-05_12:07:40 on domain   4:     .28827 elapsed seconds
Timing for main: time 2016-02-05_12:08:00 on domain   4:     .27564 elapsed seconds
Timing for main: time 2016-02-05_12:08:00 on domain   2:    2.08875 elapsed seconds
Timing for main: time 2016-02-05_12:08:00 on domain   1:    6.79992 elapsed seconds
Timing for main: time 2016-02-05_12:08:13 on domain   3:     .24494 elapsed seconds
Timing for main: time 2016-02-05_12:08:26 on domain   3:     .23131 elapsed seconds
Timing for main: time 2016-02-05_12:08:40 on domain   3:     .23138 elapsed seconds
Timing for main: time 2016-02-05_12:08:20 on domain   4:     .28904 elapsed seconds
Timing for main: time 2016-02-05_12:08:40 on domain   4:     .27575 elapsed seconds
Timing for main: time 2016-02-05_12:08:40 on domain   2:    2.11061 elapsed seconds
Timing for main: time 2016-02-05_12:08:53 on domain   3:     .24572 elapsed seconds
Timing for main: time 2016-02-05_12:09:06 on domain   3:     .23133 elapsed seconds
Timing for main: time 2016-02-05_12:09:20 on domain   3:     .23109 elapsed seconds
Timing for main: time 2016-02-05_12:09:00 on domain   4:     .28904 elapsed seconds
Timing for main: time 2016-02-05_12:09:20 on domain   4:     .27528 elapsed seconds
Timing for main: time 2016-02-05_12:09:20 on domain   2:    2.08987 elapsed seconds
Timing for main: time 2016-02-05_12:09:33 on domain   3:     .24398 elapsed seconds
Timing for main: time 2016-02-05_12:09:46 on domain   3:     .23194 elapsed seconds
Timing for main: time 2016-02-05_12:10:00 on domain   3:     .23100 elapsed seconds
Timing for main: time 2016-02-05_12:09:40 on domain   4:     .28818 elapsed seconds
Timing for main: time 2016-02-05_12:10:00 on domain   4:     .28966 elapsed seconds
Timing for main: time 2016-02-05_12:10:00 on domain   2:    2.10224 elapsed seconds
Timing for main: time 2016-02-05_12:10:00 on domain   1:    6.71479 elapsed seconds
Timing for main: time 2016-02-05_12:10:13 on domain   3:     .25456 elapsed seconds
Timing for main: time 2016-02-05_12:10:26 on domain   3:     .23140 elapsed seconds
Timing for main: time 2016-02-05_12:10:40 on domain   3:     .23387 elapsed seconds
Timing for main: time 2016-02-05_12:10:20 on domain   4:     .28979 elapsed seconds
Timing for main: time 2016-02-05_12:10:40 on domain   4:     .27580 elapsed seconds
Timing for main: time 2016-02-05_12:10:40 on domain   2:    2.13636 elapsed seconds
Timing for main: time 2016-02-05_12:10:53 on domain   3:     .24463 elapsed seconds
Timing for main: time 2016-02-05_12:11:06 on domain   3:     .23065 elapsed seconds
Timing for main: time 2016-02-05_12:11:20 on domain   3:     .23789 elapsed seconds
Timing for main: time 2016-02-05_12:11:00 on domain   4:     .28901 elapsed seconds
Timing for main: time 2016-02-05_12:11:20 on domain   4:     .27610 elapsed seconds
Timing for main: time 2016-02-05_12:11:20 on domain   2:    2.09482 elapsed seconds
Timing for main: time 2016-02-05_12:11:33 on domain   3:     .24427 elapsed seconds
Timing for main: time 2016-02-05_12:11:46 on domain   3:     .23098 elapsed seconds
Timing for main: time 2016-02-05_12:12:00 on domain   3:     .23127 elapsed seconds
Timing for main: time 2016-02-05_12:11:40 on domain   4:     .28861 elapsed seconds
Timing for main: time 2016-02-05_12:12:00 on domain   4:     .27641 elapsed seconds
Timing for main: time 2016-02-05_12:12:00 on domain   2:    2.08898 elapsed seconds
Timing for main: time 2016-02-05_12:12:00 on domain   1:    6.74072 elapsed seconds
Timing for main: time 2016-02-05_12:12:13 on domain   3:     .24403 elapsed seconds
Timing for main: time 2016-02-05_12:12:26 on domain   3:     .23076 elapsed seconds
Timing for main: time 2016-02-05_12:12:40 on domain   3:     .23361 elapsed seconds
Timing for main: time 2016-02-05_12:12:20 on domain   4:     .28929 elapsed seconds
Timing for main: time 2016-02-05_12:12:40 on domain   4:     .27537 elapsed seconds
Timing for main: time 2016-02-05_12:12:40 on domain   2:    2.11432 elapsed seconds
Timing for main: time 2016-02-05_12:12:53 on domain   3:     .24416 elapsed seconds
Timing for main: time 2016-02-05_12:13:06 on domain   3:     .23135 elapsed seconds
Timing for main: time 2016-02-05_12:13:20 on domain   3:     .23121 elapsed seconds
Timing for main: time 2016-02-05_12:13:00 on domain   4:     .28928 elapsed seconds
Timing for main: time 2016-02-05_12:13:20 on domain   4:     .27487 elapsed seconds
Timing for main: time 2016-02-05_12:13:20 on domain   2:    2.09205 elapsed seconds
Timing for main: time 2016-02-05_12:13:33 on domain   3:     .24333 elapsed seconds
Timing for main: time 2016-02-05_12:13:46 on domain   3:     .23157 elapsed seconds
Timing for main: time 2016-02-05_12:14:00 on domain   3:     .23149 elapsed seconds
Timing for main: time 2016-02-05_12:13:40 on domain   4:     .28953 elapsed seconds
Timing for main: time 2016-02-05_12:14:00 on domain   4:     .27595 elapsed seconds
Timing for main: time 2016-02-05_12:14:00 on domain   2:    2.08925 elapsed seconds
Timing for main: time 2016-02-05_12:14:00 on domain   1:    6.70668 elapsed seconds
Timing for main: time 2016-02-05_12:14:13 on domain   3:     .24366 elapsed seconds
Timing for main: time 2016-02-05_12:14:26 on domain   3:     .23162 elapsed seconds
Timing for main: time 2016-02-05_12:14:40 on domain   3:     .23170 elapsed seconds
Timing for main: time 2016-02-05_12:14:20 on domain   4:     .28882 elapsed seconds
Timing for main: time 2016-02-05_12:14:40 on domain   4:     .27531 elapsed seconds
Timing for main: time 2016-02-05_12:14:40 on domain   2:    2.10671 elapsed seconds
Timing for main: time 2016-02-05_12:14:53 on domain   3:     .24351 elapsed seconds
Timing for main: time 2016-02-05_12:15:06 on domain   3:     .23166 elapsed seconds
Timing for main: time 2016-02-05_12:15:20 on domain   3:     .24183 elapsed seconds
Timing for main: time 2016-02-05_12:15:00 on domain   4:     .29909 elapsed seconds
Timing for main: time 2016-02-05_12:15:20 on domain   4:     .27553 elapsed seconds
Timing for main: time 2016-02-05_12:15:20 on domain   2:    2.11100 elapsed seconds
Timing for main: time 2016-02-05_12:15:33 on domain   3:     .24359 elapsed seconds
Timing for main: time 2016-02-05_12:15:46 on domain   3:     .23128 elapsed seconds
Timing for main: time 2016-02-05_12:16:00 on domain   3:     .23146 elapsed seconds
Timing for main: time 2016-02-05_12:15:40 on domain   4:     .28878 elapsed seconds
Timing for main: time 2016-02-05_12:16:00 on domain   4:     .27675 elapsed seconds
Timing for main: time 2016-02-05_12:16:00 on domain   2:    2.10224 elapsed seconds
Timing for main: time 2016-02-05_12:16:00 on domain   1:    6.73113 elapsed seconds
Timing for main: time 2016-02-05_12:16:13 on domain   3:     .24376 elapsed seconds
Timing for main: time 2016-02-05_12:16:26 on domain   3:     .23167 elapsed seconds
Timing for main: time 2016-02-05_12:16:40 on domain   3:     .23163 elapsed seconds
Timing for main: time 2016-02-05_12:16:20 on domain   4:     .28930 elapsed seconds
Timing for main: time 2016-02-05_12:16:40 on domain   4:     .27530 elapsed seconds
Timing for main: time 2016-02-05_12:16:40 on domain   2:    2.11104 elapsed seconds
Timing for main: time 2016-02-05_12:16:53 on domain   3:     .24435 elapsed seconds
Timing for main: time 2016-02-05_12:17:06 on domain   3:     .23148 elapsed seconds
Timing for main: time 2016-02-05_12:17:20 on domain   3:     .23203 elapsed seconds
Timing for main: time 2016-02-05_12:17:00 on domain   4:     .28954 elapsed seconds
Timing for main: time 2016-02-05_12:17:20 on domain   4:     .27574 elapsed seconds
Timing for main: time 2016-02-05_12:17:20 on domain   2:    2.08996 elapsed seconds
Timing for main: time 2016-02-05_12:17:33 on domain   3:     .24422 elapsed seconds
Timing for main: time 2016-02-05_12:17:46 on domain   3:     .23190 elapsed seconds
Timing for main: time 2016-02-05_12:18:00 on domain   3:     .23185 elapsed seconds
Timing for main: time 2016-02-05_12:17:40 on domain   4:     .28954 elapsed seconds
Timing for main: time 2016-02-05_12:18:00 on domain   4:     .27575 elapsed seconds
Timing for main: time 2016-02-05_12:18:00 on domain   2:    2.08992 elapsed seconds
Timing for main: time 2016-02-05_12:18:00 on domain   1:    6.71190 elapsed seconds
Timing for main: time 2016-02-05_12:18:13 on domain   3:     .24425 elapsed seconds
Timing for main: time 2016-02-05_12:18:26 on domain   3:     .23139 elapsed seconds
Timing for main: time 2016-02-05_12:18:40 on domain   3:     .23389 elapsed seconds
Timing for main: time 2016-02-05_12:18:20 on domain   4:     .28966 elapsed seconds
Timing for main: time 2016-02-05_12:18:40 on domain   4:     .27542 elapsed seconds
Timing for main: time 2016-02-05_12:18:40 on domain   2:    2.11020 elapsed seconds
Timing for main: time 2016-02-05_12:18:53 on domain   3:     .24466 elapsed seconds
Timing for main: time 2016-02-05_12:19:06 on domain   3:     .23110 elapsed seconds
Timing for main: time 2016-02-05_12:19:20 on domain   3:     .23061 elapsed seconds
Timing for main: time 2016-02-05_12:19:00 on domain   4:     .28876 elapsed seconds
Timing for main: time 2016-02-05_12:19:20 on domain   4:     .27614 elapsed seconds
Timing for main: time 2016-02-05_12:19:20 on domain   2:    2.08989 elapsed seconds
Timing for main: time 2016-02-05_12:19:33 on domain   3:     .24487 elapsed seconds
Timing for main: time 2016-02-05_12:19:46 on domain   3:     .23109 elapsed seconds
Timing for main: time 2016-02-05_12:20:00 on domain   3:     .23182 elapsed seconds
Timing for main: time 2016-02-05_12:19:40 on domain   4:     .28933 elapsed seconds
Timing for main: time 2016-02-05_12:20:00 on domain   4:     .28935 elapsed seconds
Timing for main: time 2016-02-05_12:20:00 on domain   2:    2.11085 elapsed seconds
Timing for main: time 2016-02-05_12:20:00 on domain   1:    6.72185 elapsed seconds
Timing for main: time 2016-02-05_12:20:13 on domain   3:     .24436 elapsed seconds
Timing for main: time 2016-02-05_12:20:26 on domain   3:     .24182 elapsed seconds
Timing for main: time 2016-02-05_12:20:40 on domain   3:     .23159 elapsed seconds
Timing for main: time 2016-02-05_12:20:20 on domain   4:     .28900 elapsed seconds
Timing for main: time 2016-02-05_12:20:40 on domain   4:     .27564 elapsed seconds
Timing for main: time 2016-02-05_12:20:40 on domain   2:    2.11923 elapsed seconds
Timing for main: time 2016-02-05_12:20:53 on domain   3:     .24408 elapsed seconds
Timing for main: time 2016-02-05_12:21:06 on domain   3:     .23131 elapsed seconds
Timing for main: time 2016-02-05_12:21:20 on domain   3:     .24226 elapsed seconds
Timing for main: time 2016-02-05_12:21:00 on domain   4:     .28921 elapsed seconds
Timing for main: time 2016-02-05_12:21:20 on domain   4:     .27605 elapsed seconds
Timing for main: time 2016-02-05_12:21:20 on domain   2:    2.11009 elapsed seconds
Timing for main: time 2016-02-05_12:21:33 on domain   3:     .24358 elapsed seconds
Timing for main: time 2016-02-05_12:21:46 on domain   3:     .23113 elapsed seconds
Timing for main: time 2016-02-05_12:22:00 on domain   3:     .23119 elapsed seconds
Timing for main: time 2016-02-05_12:21:40 on domain   4:     .28890 elapsed seconds
Timing for main: time 2016-02-05_12:22:00 on domain   4:     .27628 elapsed seconds
Timing for main: time 2016-02-05_12:22:00 on domain   2:    2.08940 elapsed seconds
Timing for main: time 2016-02-05_12:22:00 on domain   1:    6.73555 elapsed seconds
Timing for main: time 2016-02-05_12:22:13 on domain   3:     .24435 elapsed seconds
Timing for main: time 2016-02-05_12:22:26 on domain   3:     .23356 elapsed seconds
Timing for main: time 2016-02-05_12:22:40 on domain   3:     .23240 elapsed seconds
Timing for main: time 2016-02-05_12:22:20 on domain   4:     .28898 elapsed seconds
Timing for main: time 2016-02-05_12:22:40 on domain   4:     .27531 elapsed seconds
Timing for main: time 2016-02-05_12:22:40 on domain   2:    2.11028 elapsed seconds
Timing for main: time 2016-02-05_12:22:53 on domain   3:     .24447 elapsed seconds
Timing for main: time 2016-02-05_12:23:06 on domain   3:     .23122 elapsed seconds
Timing for main: time 2016-02-05_12:23:20 on domain   3:     .23286 elapsed seconds
Timing for main: time 2016-02-05_12:23:00 on domain   4:     .28899 elapsed seconds
Timing for main: time 2016-02-05_12:23:20 on domain   4:     .27662 elapsed seconds
Timing for main: time 2016-02-05_12:23:20 on domain   2:    2.09244 elapsed seconds
Timing for main: time 2016-02-05_12:23:33 on domain   3:     .24367 elapsed seconds
Timing for main: time 2016-02-05_12:23:46 on domain   3:     .23312 elapsed seconds
Timing for main: time 2016-02-05_12:24:00 on domain   3:     .23115 elapsed seconds
Timing for main: time 2016-02-05_12:23:40 on domain   4:     .28962 elapsed seconds
Timing for main: time 2016-02-05_12:24:00 on domain   4:     .27617 elapsed seconds
Timing for main: time 2016-02-05_12:24:00 on domain   2:    2.09158 elapsed seconds
Timing for main: time 2016-02-05_12:24:00 on domain   1:    6.71472 elapsed seconds
Timing for main: time 2016-02-05_12:24:13 on domain   3:     .24359 elapsed seconds
Timing for main: time 2016-02-05_12:24:26 on domain   3:     .23128 elapsed seconds
Timing for main: time 2016-02-05_12:24:40 on domain   3:     .23515 elapsed seconds
Timing for main: time 2016-02-05_12:24:20 on domain   4:     .28944 elapsed seconds
Timing for main: time 2016-02-05_12:24:40 on domain   4:     .27621 elapsed seconds
Timing for main: time 2016-02-05_12:24:40 on domain   2:    2.10727 elapsed seconds
Timing for main: time 2016-02-05_12:24:53 on domain   3:     .24403 elapsed seconds
Timing for main: time 2016-02-05_12:25:06 on domain   3:     .23160 elapsed seconds
Timing for main: time 2016-02-05_12:25:20 on domain   3:     .23060 elapsed seconds
Timing for main: time 2016-02-05_12:25:00 on domain   4:     .30215 elapsed seconds
Timing for main: time 2016-02-05_12:25:20 on domain   4:     .27679 elapsed seconds
Timing for main: time 2016-02-05_12:25:20 on domain   2:    2.11066 elapsed seconds
Timing for main: time 2016-02-05_12:25:33 on domain   3:     .25431 elapsed seconds
Timing for main: time 2016-02-05_12:25:46 on domain   3:     .23149 elapsed seconds
Timing for main: time 2016-02-05_12:26:00 on domain   3:     .23085 elapsed seconds
Timing for main: time 2016-02-05_12:25:40 on domain   4:     .28927 elapsed seconds
Timing for main: time 2016-02-05_12:26:00 on domain   4:     .27636 elapsed seconds
Timing for main: time 2016-02-05_12:26:00 on domain   2:    2.10069 elapsed seconds
Timing for main: time 2016-02-05_12:26:00 on domain   1:    6.73263 elapsed seconds
Timing for main: time 2016-02-05_12:26:13 on domain   3:     .24426 elapsed seconds
Timing for main: time 2016-02-05_12:26:26 on domain   3:     .23089 elapsed seconds
Timing for main: time 2016-02-05_12:26:40 on domain   3:     .23085 elapsed seconds
Timing for main: time 2016-02-05_12:26:20 on domain   4:     .28840 elapsed seconds
Timing for main: time 2016-02-05_12:26:40 on domain   4:     .27723 elapsed seconds
Timing for main: time 2016-02-05_12:26:40 on domain   2:    2.12172 elapsed seconds
Timing for main: time 2016-02-05_12:26:53 on domain   3:     .24408 elapsed seconds
Timing for main: time 2016-02-05_12:27:06 on domain   3:     .23060 elapsed seconds
Timing for main: time 2016-02-05_12:27:20 on domain   3:     .23122 elapsed seconds
Timing for main: time 2016-02-05_12:27:00 on domain   4:     .28993 elapsed seconds
Timing for main: time 2016-02-05_12:27:20 on domain   4:     .27594 elapsed seconds
Timing for main: time 2016-02-05_12:27:20 on domain   2:    2.09136 elapsed seconds
Timing for main: time 2016-02-05_12:27:33 on domain   3:     .24366 elapsed seconds
Timing for main: time 2016-02-05_12:27:46 on domain   3:     .23114 elapsed seconds
Timing for main: time 2016-02-05_12:28:00 on domain   3:     .23141 elapsed seconds
Timing for main: time 2016-02-05_12:27:40 on domain   4:     .28911 elapsed seconds
Timing for main: time 2016-02-05_12:28:00 on domain   4:     .27656 elapsed seconds
Timing for main: time 2016-02-05_12:28:00 on domain   2:    2.09124 elapsed seconds
Timing for main: time 2016-02-05_12:28:00 on domain   1:    6.71492 elapsed seconds
  photolysis_driver: called for domain  1
Timing for main: time 2016-02-05_12:28:13 on domain   3:     .24374 elapsed seconds
Timing for main: time 2016-02-05_12:28:26 on domain   3:     .23111 elapsed seconds
Timing for main: time 2016-02-05_12:28:40 on domain   3:     .23115 elapsed seconds
Timing for main: time 2016-02-05_12:28:20 on domain   4:     .28870 elapsed seconds
Timing for main: time 2016-02-05_12:28:40 on domain   4:     .28018 elapsed seconds
Timing for main: time 2016-02-05_12:28:40 on domain   2:    2.11510 elapsed seconds
Timing for main: time 2016-02-05_12:28:53 on domain   3:     .24439 elapsed seconds
Timing for main: time 2016-02-05_12:29:06 on domain   3:     .23111 elapsed seconds
Timing for main: time 2016-02-05_12:29:20 on domain   3:     .23135 elapsed seconds
Timing for main: time 2016-02-05_12:29:00 on domain   4:     .28926 elapsed seconds
Timing for main: time 2016-02-05_12:29:20 on domain   4:     .27641 elapsed seconds
Timing for main: time 2016-02-05_12:29:20 on domain   2:    2.09201 elapsed seconds
  photolysis_driver: called for domain  2
Timing for main: time 2016-02-05_12:29:33 on domain   3:     .24357 elapsed seconds
Timing for main: time 2016-02-05_12:29:46 on domain   3:     .23245 elapsed seconds
  photolysis_driver: called for domain  3
Timing for main: time 2016-02-05_12:30:00 on domain   3:    1.38191 elapsed seconds
Timing for main: time 2016-02-05_12:29:40 on domain   4:     .28961 elapsed seconds
  photolysis_driver: called for domain  4
Timing for main: time 2016-02-05_12:30:00 on domain   4:    1.63590 elapsed seconds
Timing for main: time 2016-02-05_12:30:00 on domain   2:    6.00588 elapsed seconds
Timing for main: time 2016-02-05_12:30:00 on domain   1:   11.49667 elapsed seconds
Timing for main: time 2016-02-05_12:30:13 on domain   3:     .47038 elapsed seconds
Timing for main: time 2016-02-05_12:30:26 on domain   3:     .23198 elapsed seconds
Timing for main: time 2016-02-05_12:30:40 on domain   3:     .24012 elapsed seconds
Timing for main: time 2016-02-05_12:30:20 on domain   4:     .55419 elapsed seconds
Timing for main: time 2016-02-05_12:30:40 on domain   4:     .27493 elapsed seconds
Timing for main: time 2016-02-05_12:30:40 on domain   2:    2.89361 elapsed seconds
Timing for main: time 2016-02-05_12:30:53 on domain   3:     .24230 elapsed seconds
Timing for main: time 2016-02-05_12:31:06 on domain   3:     .23111 elapsed seconds
Timing for main: time 2016-02-05_12:31:20 on domain   3:     .22944 elapsed seconds
Timing for main: time 2016-02-05_12:31:00 on domain   4:     .28755 elapsed seconds
Timing for main: time 2016-02-05_12:31:20 on domain   4:     .27515 elapsed seconds
Timing for main: time 2016-02-05_12:31:20 on domain   2:    2.08554 elapsed seconds
Timing for main: time 2016-02-05_12:31:33 on domain   3:     .24279 elapsed seconds
Timing for main: time 2016-02-05_12:31:46 on domain   3:     .22907 elapsed seconds
Timing for main: time 2016-02-05_12:32:00 on domain   3:     .27065 elapsed seconds
Timing for main: time 2016-02-05_12:31:40 on domain   4:     .28662 elapsed seconds
Timing for main: time 2016-02-05_12:32:00 on domain   4:     .27697 elapsed seconds
Timing for main: time 2016-02-05_12:32:00 on domain   2:    2.18259 elapsed seconds
Timing for main: time 2016-02-05_12:32:00 on domain   1:    7.76698 elapsed seconds
Timing for main: time 2016-02-05_12:32:13 on domain   3:     .24443 elapsed seconds
Timing for main: time 2016-02-05_12:32:26 on domain   3:     .22972 elapsed seconds
Timing for main: time 2016-02-05_12:32:40 on domain   3:     .22958 elapsed seconds
Timing for main: time 2016-02-05_12:32:20 on domain   4:     .28783 elapsed seconds
Timing for main: time 2016-02-05_12:32:40 on domain   4:     .27528 elapsed seconds
Timing for main: time 2016-02-05_12:32:40 on domain   2:    2.10391 elapsed seconds
Timing for main: time 2016-02-05_12:32:53 on domain   3:     .24281 elapsed seconds
Timing for main: time 2016-02-05_12:33:06 on domain   3:     .22928 elapsed seconds
Timing for main: time 2016-02-05_12:33:20 on domain   3:     .23002 elapsed seconds
Timing for main: time 2016-02-05_12:33:00 on domain   4:     .28884 elapsed seconds
Timing for main: time 2016-02-05_12:33:20 on domain   4:     .27539 elapsed seconds
Timing for main: time 2016-02-05_12:33:20 on domain   2:    2.08626 elapsed seconds
Timing for main: time 2016-02-05_12:33:33 on domain   3:     .24239 elapsed seconds
Timing for main: time 2016-02-05_12:33:46 on domain   3:     .22968 elapsed seconds
Timing for main: time 2016-02-05_12:34:00 on domain   3:     .22986 elapsed seconds
Timing for main: time 2016-02-05_12:33:40 on domain   4:     .28760 elapsed seconds
Timing for main: time 2016-02-05_12:34:00 on domain   4:     .36152 elapsed seconds
Timing for main: time 2016-02-05_12:34:00 on domain   2:    2.24966 elapsed seconds
Timing for main: time 2016-02-05_12:34:00 on domain   1:    6.85223 elapsed seconds
Timing for main: time 2016-02-05_12:34:13 on domain   3:     .24272 elapsed seconds
Timing for main: time 2016-02-05_12:34:26 on domain   3:     .22939 elapsed seconds
Timing for main: time 2016-02-05_12:34:40 on domain   3:     .22919 elapsed seconds
Timing for main: time 2016-02-05_12:34:20 on domain   4:     .28647 elapsed seconds
Timing for main: time 2016-02-05_12:34:40 on domain   4:     .27520 elapsed seconds
Timing for main: time 2016-02-05_12:34:40 on domain   2:    2.10067 elapsed seconds
Timing for main: time 2016-02-05_12:34:53 on domain   3:     .24214 elapsed seconds
Timing for main: time 2016-02-05_12:35:06 on domain   3:     .22928 elapsed seconds
Timing for main: time 2016-02-05_12:35:20 on domain   3:     .23126 elapsed seconds
Timing for main: time 2016-02-05_12:35:00 on domain   4:     .30038 elapsed seconds
Timing for main: time 2016-02-05_12:35:20 on domain   4:     .27708 elapsed seconds
Timing for main: time 2016-02-05_12:35:20 on domain   2:    2.10022 elapsed seconds
Timing for main: time 2016-02-05_12:35:33 on domain   3:     .24354 elapsed seconds
Timing for main: time 2016-02-05_12:35:46 on domain   3:     .24152 elapsed seconds
Timing for main: time 2016-02-05_12:36:00 on domain   3:     .23038 elapsed seconds
Timing for main: time 2016-02-05_12:35:40 on domain   4:     .28776 elapsed seconds
Timing for main: time 2016-02-05_12:36:00 on domain   4:     .27479 elapsed seconds
Timing for main: time 2016-02-05_12:36:00 on domain   2:    2.09716 elapsed seconds
Timing for main: time 2016-02-05_12:36:00 on domain   1:    6.73653 elapsed seconds
Timing for main: time 2016-02-05_12:36:13 on domain   3:     .24279 elapsed seconds
Timing for main: time 2016-02-05_12:36:26 on domain   3:     .22948 elapsed seconds
Timing for main: time 2016-02-05_12:36:40 on domain   3:     .22996 elapsed seconds
Timing for main: time 2016-02-05_12:36:20 on domain   4:     .28888 elapsed seconds
Timing for main: time 2016-02-05_12:36:40 on domain   4:     .27678 elapsed seconds
Timing for main: time 2016-02-05_12:36:40 on domain   2:    2.10628 elapsed seconds
Timing for main: time 2016-02-05_12:36:53 on domain   3:     .24226 elapsed seconds
Timing for main: time 2016-02-05_12:37:06 on domain   3:     .22988 elapsed seconds
Timing for main: time 2016-02-05_12:37:20 on domain   3:     .22938 elapsed seconds
Timing for main: time 2016-02-05_12:37:00 on domain   4:     .28418 elapsed seconds
Timing for main: time 2016-02-05_12:37:20 on domain   4:     .27574 elapsed seconds
Timing for main: time 2016-02-05_12:37:20 on domain   2:    2.19364 elapsed seconds
Timing for main: time 2016-02-05_12:37:33 on domain   3:     .24249 elapsed seconds
Timing for main: time 2016-02-05_12:37:46 on domain   3:     .22968 elapsed seconds
Timing for main: time 2016-02-05_12:38:00 on domain   3:     .22940 elapsed seconds
Timing for main: time 2016-02-05_12:37:40 on domain   4:     .28961 elapsed seconds
Timing for main: time 2016-02-05_12:38:00 on domain   4:     .27468 elapsed seconds
Timing for main: time 2016-02-05_12:38:00 on domain   2:    2.08606 elapsed seconds
Timing for main: time 2016-02-05_12:38:00 on domain   1:    6.79811 elapsed seconds
Timing for main: time 2016-02-05_12:38:13 on domain   3:     .24279 elapsed seconds
Timing for main: time 2016-02-05_12:38:26 on domain   3:     .23123 elapsed seconds
Timing for main: time 2016-02-05_12:38:40 on domain   3:     .23140 elapsed seconds
Timing for main: time 2016-02-05_12:38:20 on domain   4:     .28714 elapsed seconds
Timing for main: time 2016-02-05_12:38:40 on domain   4:     .27522 elapsed seconds
Timing for main: time 2016-02-05_12:38:40 on domain   2:    2.10401 elapsed seconds
Timing for main: time 2016-02-05_12:38:53 on domain   3:     .24306 elapsed seconds
Timing for main: time 2016-02-05_12:39:06 on domain   3:     .22983 elapsed seconds
Timing for main: time 2016-02-05_12:39:20 on domain   3:     .22993 elapsed seconds
Timing for main: time 2016-02-05_12:39:00 on domain   4:     .28784 elapsed seconds
Timing for main: time 2016-02-05_12:39:20 on domain   4:     .27440 elapsed seconds
Timing for main: time 2016-02-05_12:39:20 on domain   2:    2.08455 elapsed seconds
Timing for main: time 2016-02-05_12:39:33 on domain   3:     .24292 elapsed seconds
Timing for main: time 2016-02-05_12:39:46 on domain   3:     .22970 elapsed seconds
Timing for main: time 2016-02-05_12:40:00 on domain   3:     .23025 elapsed seconds
Timing for main: time 2016-02-05_12:39:40 on domain   4:     .28743 elapsed seconds
Timing for main: time 2016-02-05_12:40:00 on domain   4:     .28723 elapsed seconds
Timing for main: time 2016-02-05_12:40:00 on domain   2:    2.09733 elapsed seconds
Timing for main: time 2016-02-05_12:40:00 on domain   1:    6.69865 elapsed seconds
Timing for main: time 2016-02-05_12:40:13 on domain   3:     .24294 elapsed seconds
Timing for main: time 2016-02-05_12:40:26 on domain   3:     .23001 elapsed seconds
Timing for main: time 2016-02-05_12:40:40 on domain   3:     .22977 elapsed seconds
Timing for main: time 2016-02-05_12:40:20 on domain   4:     .28719 elapsed seconds
Timing for main: time 2016-02-05_12:40:40 on domain   4:     .27400 elapsed seconds
Timing for main: time 2016-02-05_12:40:40 on domain   2:    2.10182 elapsed seconds
Timing for main: time 2016-02-05_12:40:53 on domain   3:     .25286 elapsed seconds
Timing for main: time 2016-02-05_12:41:06 on domain   3:     .23133 elapsed seconds
Timing for main: time 2016-02-05_12:41:20 on domain   3:     .22960 elapsed seconds
Timing for main: time 2016-02-05_12:41:00 on domain   4:     .28730 elapsed seconds
Timing for main: time 2016-02-05_12:41:20 on domain   4:     .27494 elapsed seconds
Timing for main: time 2016-02-05_12:41:20 on domain   2:    2.09876 elapsed seconds
Timing for main: time 2016-02-05_12:41:33 on domain   3:     .24664 elapsed seconds
Timing for main: time 2016-02-05_12:41:46 on domain   3:     .32606 elapsed seconds
Timing for main: time 2016-02-05_12:42:00 on domain   3:     .22864 elapsed seconds
Timing for main: time 2016-02-05_12:41:40 on domain   4:     .28745 elapsed seconds
Timing for main: time 2016-02-05_12:42:00 on domain   4:     .27455 elapsed seconds
Timing for main: time 2016-02-05_12:42:00 on domain   2:    2.18059 elapsed seconds
Timing for main: time 2016-02-05_12:42:00 on domain   1:    6.80134 elapsed seconds
Timing for main: time 2016-02-05_12:42:13 on domain   3:     .24290 elapsed seconds
Timing for main: time 2016-02-05_12:42:26 on domain   3:     .22938 elapsed seconds
Timing for main: time 2016-02-05_12:42:40 on domain   3:     .22957 elapsed seconds
Timing for main: time 2016-02-05_12:42:20 on domain   4:     .28659 elapsed seconds
Timing for main: time 2016-02-05_12:42:40 on domain   4:     .34411 elapsed seconds
Timing for main: time 2016-02-05_12:42:40 on domain   2:    2.18295 elapsed seconds
Timing for main: time 2016-02-05_12:42:53 on domain   3:     .24290 elapsed seconds
Timing for main: time 2016-02-05_12:43:06 on domain   3:     .22986 elapsed seconds
Timing for main: time 2016-02-05_12:43:20 on domain   3:     .23046 elapsed seconds
Timing for main: time 2016-02-05_12:43:00 on domain   4:     .28764 elapsed seconds
Timing for main: time 2016-02-05_12:43:20 on domain   4:     .27528 elapsed seconds
Timing for main: time 2016-02-05_12:43:20 on domain   2:    2.11731 elapsed seconds
Timing for main: time 2016-02-05_12:43:33 on domain   3:     .24288 elapsed seconds
Timing for main: time 2016-02-05_12:43:46 on domain   3:     .22989 elapsed seconds
Timing for main: time 2016-02-05_12:44:00 on domain   3:     .23003 elapsed seconds
Timing for main: time 2016-02-05_12:43:40 on domain   4:     .28763 elapsed seconds
Timing for main: time 2016-02-05_12:44:00 on domain   4:     .28527 elapsed seconds
Timing for main: time 2016-02-05_12:44:00 on domain   2:    2.09627 elapsed seconds
Timing for main: time 2016-02-05_12:44:00 on domain   1:    6.80869 elapsed seconds
Timing for main: time 2016-02-05_12:44:13 on domain   3:     .24733 elapsed seconds
Timing for main: time 2016-02-05_12:44:26 on domain   3:     .22967 elapsed seconds
Timing for main: time 2016-02-05_12:44:40 on domain   3:     .23058 elapsed seconds
Timing for main: time 2016-02-05_12:44:20 on domain   4:     .29180 elapsed seconds
Timing for main: time 2016-02-05_12:44:40 on domain   4:     .27498 elapsed seconds
Timing for main: time 2016-02-05_12:44:40 on domain   2:    2.11594 elapsed seconds
Timing for main: time 2016-02-05_12:44:53 on domain   3:     .24208 elapsed seconds
Timing for main: time 2016-02-05_12:45:06 on domain   3:     .23408 elapsed seconds
Timing for main: time 2016-02-05_12:45:20 on domain   3:     .23926 elapsed seconds
Timing for main: time 2016-02-05_12:45:00 on domain   4:     .30022 elapsed seconds
Timing for main: time 2016-02-05_12:45:20 on domain   4:     .27561 elapsed seconds
Timing for main: time 2016-02-05_12:45:20 on domain   2:    2.10841 elapsed seconds
Timing for main: time 2016-02-05_12:45:33 on domain   3:     .24241 elapsed seconds
Timing for main: time 2016-02-05_12:45:46 on domain   3:     .22987 elapsed seconds
Timing for main: time 2016-02-05_12:46:00 on domain   3:     .23999 elapsed seconds
Timing for main: time 2016-02-05_12:45:40 on domain   4:     .28669 elapsed seconds
Timing for main: time 2016-02-05_12:46:00 on domain   4:     .27495 elapsed seconds
Timing for main: time 2016-02-05_12:46:00 on domain   2:    2.09410 elapsed seconds
Timing for main: time 2016-02-05_12:46:00 on domain   1:    6.74187 elapsed seconds
Timing for main: time 2016-02-05_12:46:13 on domain   3:     .24250 elapsed seconds
Timing for main: time 2016-02-05_12:46:26 on domain   3:     .23002 elapsed seconds
Timing for main: time 2016-02-05_12:46:40 on domain   3:     .22990 elapsed seconds
Timing for main: time 2016-02-05_12:46:20 on domain   4:     .28742 elapsed seconds
Timing for main: time 2016-02-05_12:46:40 on domain   4:     .27433 elapsed seconds
Timing for main: time 2016-02-05_12:46:40 on domain   2:    2.10081 elapsed seconds
Timing for main: time 2016-02-05_12:46:53 on domain   3:     .24273 elapsed seconds
Timing for main: time 2016-02-05_12:47:06 on domain   3:     .23006 elapsed seconds
Timing for main: time 2016-02-05_12:47:20 on domain   3:     .23154 elapsed seconds
Timing for main: time 2016-02-05_12:47:00 on domain   4:     .28759 elapsed seconds
Timing for main: time 2016-02-05_12:47:20 on domain   4:     .27538 elapsed seconds
Timing for main: time 2016-02-05_12:47:20 on domain   2:    2.08642 elapsed seconds
Timing for main: time 2016-02-05_12:47:33 on domain   3:     .24270 elapsed seconds
Timing for main: time 2016-02-05_12:47:46 on domain   3:     .23011 elapsed seconds
Timing for main: time 2016-02-05_12:48:00 on domain   3:     .22974 elapsed seconds
Timing for main: time 2016-02-05_12:47:40 on domain   4:     .28842 elapsed seconds
Timing for main: time 2016-02-05_12:48:00 on domain   4:     .27527 elapsed seconds
Timing for main: time 2016-02-05_12:48:00 on domain   2:    2.09688 elapsed seconds
Timing for main: time 2016-02-05_12:48:00 on domain   1:    6.70510 elapsed seconds
Timing for main: time 2016-02-05_12:48:13 on domain   3:     .24239 elapsed seconds
Timing for main: time 2016-02-05_12:48:26 on domain   3:     .22984 elapsed seconds
Timing for main: time 2016-02-05_12:48:40 on domain   3:     .23039 elapsed seconds
Timing for main: time 2016-02-05_12:48:20 on domain   4:     .28765 elapsed seconds
Timing for main: time 2016-02-05_12:48:40 on domain   4:     .27482 elapsed seconds
Timing for main: time 2016-02-05_12:48:40 on domain   2:    2.10194 elapsed seconds
Timing for main: time 2016-02-05_12:48:53 on domain   3:     .24240 elapsed seconds
Timing for main: time 2016-02-05_12:49:06 on domain   3:     .23206 elapsed seconds
Timing for main: time 2016-02-05_12:49:20 on domain   3:     .22777 elapsed seconds
Timing for main: time 2016-02-05_12:49:00 on domain   4:     .28735 elapsed seconds
Timing for main: time 2016-02-05_12:49:20 on domain   4:     .27436 elapsed seconds
Timing for main: time 2016-02-05_12:49:20 on domain   2:    2.08233 elapsed seconds
Timing for main: time 2016-02-05_12:49:33 on domain   3:     .24287 elapsed seconds
Timing for main: time 2016-02-05_12:49:46 on domain   3:     .23224 elapsed seconds
Timing for main: time 2016-02-05_12:50:00 on domain   3:     .23103 elapsed seconds
Timing for main: time 2016-02-05_12:49:40 on domain   4:     .29618 elapsed seconds
Timing for main: time 2016-02-05_12:50:00 on domain   4:     .29098 elapsed seconds
Timing for main: time 2016-02-05_12:50:00 on domain   2:    2.11212 elapsed seconds
Timing for main: time 2016-02-05_12:50:00 on domain   1:    6.70853 elapsed seconds
Timing for main: time 2016-02-05_12:50:13 on domain   3:     .24464 elapsed seconds
Timing for main: time 2016-02-05_12:50:26 on domain   3:     .23152 elapsed seconds
Timing for main: time 2016-02-05_12:50:40 on domain   3:     .23004 elapsed seconds
Timing for main: time 2016-02-05_12:50:20 on domain   4:     .28719 elapsed seconds
Timing for main: time 2016-02-05_12:50:40 on domain   4:     .27447 elapsed seconds
Timing for main: time 2016-02-05_12:50:40 on domain   2:    2.10549 elapsed seconds
Timing for main: time 2016-02-05_12:50:53 on domain   3:     .24227 elapsed seconds
Timing for main: time 2016-02-05_12:51:06 on domain   3:     .24092 elapsed seconds
Timing for main: time 2016-02-05_12:51:20 on domain   3:     .22988 elapsed seconds
Timing for main: time 2016-02-05_12:51:00 on domain   4:     .28680 elapsed seconds
Timing for main: time 2016-02-05_12:51:20 on domain   4:     .27499 elapsed seconds
Timing for main: time 2016-02-05_12:51:20 on domain   2:    2.09467 elapsed seconds
Timing for main: time 2016-02-05_12:51:33 on domain   3:     .28026 elapsed seconds
Timing for main: time 2016-02-05_12:51:46 on domain   3:     .23002 elapsed seconds
Timing for main: time 2016-02-05_12:52:00 on domain   3:     .23053 elapsed seconds
Timing for main: time 2016-02-05_12:51:40 on domain   4:     .28761 elapsed seconds
Timing for main: time 2016-02-05_12:52:00 on domain   4:     .27488 elapsed seconds
Timing for main: time 2016-02-05_12:52:00 on domain   2:    2.12207 elapsed seconds
Timing for main: time 2016-02-05_12:52:00 on domain   1:    6.73410 elapsed seconds
Timing for main: time 2016-02-05_12:52:13 on domain   3:     .24335 elapsed seconds
Timing for main: time 2016-02-05_12:52:26 on domain   3:     .23334 elapsed seconds
Timing for main: time 2016-02-05_12:52:40 on domain   3:     .22993 elapsed seconds
Timing for main: time 2016-02-05_12:52:20 on domain   4:     .28747 elapsed seconds
Timing for main: time 2016-02-05_12:52:40 on domain   4:     .27472 elapsed seconds
Timing for main: time 2016-02-05_12:52:40 on domain   2:    2.10539 elapsed seconds
Timing for main: time 2016-02-05_12:52:53 on domain   3:     .24268 elapsed seconds
Timing for main: time 2016-02-05_12:53:06 on domain   3:     .23373 elapsed seconds
Timing for main: time 2016-02-05_12:53:20 on domain   3:     .24967 elapsed seconds
Timing for main: time 2016-02-05_12:53:00 on domain   4:     .29149 elapsed seconds
Timing for main: time 2016-02-05_12:53:20 on domain   4:     .27505 elapsed seconds
Timing for main: time 2016-02-05_12:53:20 on domain   2:    2.12750 elapsed seconds
Timing for main: time 2016-02-05_12:53:33 on domain   3:     .25036 elapsed seconds
Timing for main: time 2016-02-05_12:53:46 on domain   3:     .23027 elapsed seconds
Timing for main: time 2016-02-05_12:54:00 on domain   3:     .23008 elapsed seconds
Timing for main: time 2016-02-05_12:53:40 on domain   4:     .28773 elapsed seconds
Timing for main: time 2016-02-05_12:54:00 on domain   4:     .27753 elapsed seconds
Timing for main: time 2016-02-05_12:54:00 on domain   2:    2.10144 elapsed seconds
Timing for main: time 2016-02-05_12:54:00 on domain   1:    6.75510 elapsed seconds
Timing for main: time 2016-02-05_12:54:13 on domain   3:     .24241 elapsed seconds
Timing for main: time 2016-02-05_12:54:26 on domain   3:     .23064 elapsed seconds
Timing for main: time 2016-02-05_12:54:40 on domain   3:     .23004 elapsed seconds
Timing for main: time 2016-02-05_12:54:20 on domain   4:     .28780 elapsed seconds
Timing for main: time 2016-02-05_12:54:40 on domain   4:     .27474 elapsed seconds
Timing for main: time 2016-02-05_12:54:40 on domain   2:    2.10251 elapsed seconds
Timing for main: time 2016-02-05_12:54:53 on domain   3:     .24529 elapsed seconds
Timing for main: time 2016-02-05_12:55:06 on domain   3:     .23247 elapsed seconds
Timing for main: time 2016-02-05_12:55:20 on domain   3:     .23024 elapsed seconds
Timing for main: time 2016-02-05_12:55:00 on domain   4:     .29987 elapsed seconds
Timing for main: time 2016-02-05_12:55:20 on domain   4:     .27447 elapsed seconds
Timing for main: time 2016-02-05_12:55:20 on domain   2:    2.10072 elapsed seconds
Timing for main: time 2016-02-05_12:55:33 on domain   3:     .24273 elapsed seconds
Timing for main: time 2016-02-05_12:55:46 on domain   3:     .23158 elapsed seconds
Timing for main: time 2016-02-05_12:56:00 on domain   3:     .23002 elapsed seconds
Timing for main: time 2016-02-05_12:55:40 on domain   4:     .28756 elapsed seconds
Timing for main: time 2016-02-05_12:56:00 on domain   4:     .27474 elapsed seconds
Timing for main: time 2016-02-05_12:56:00 on domain   2:    2.08538 elapsed seconds
Timing for main: time 2016-02-05_12:56:00 on domain   1:    6.70049 elapsed seconds
Timing for main: time 2016-02-05_12:56:13 on domain   3:     .25324 elapsed seconds
Timing for main: time 2016-02-05_12:56:26 on domain   3:     .23058 elapsed seconds
Timing for main: time 2016-02-05_12:56:40 on domain   3:     .23030 elapsed seconds
Timing for main: time 2016-02-05_12:56:20 on domain   4:     .28755 elapsed seconds
Timing for main: time 2016-02-05_12:56:40 on domain   4:     .27452 elapsed seconds
Timing for main: time 2016-02-05_12:56:40 on domain   2:    2.11292 elapsed seconds
Timing for main: time 2016-02-05_12:56:53 on domain   3:     .24328 elapsed seconds
Timing for main: time 2016-02-05_12:57:06 on domain   3:     .23094 elapsed seconds
Timing for main: time 2016-02-05_12:57:20 on domain   3:     .23025 elapsed seconds
Timing for main: time 2016-02-05_12:57:00 on domain   4:     .28767 elapsed seconds
Timing for main: time 2016-02-05_12:57:20 on domain   4:     .27416 elapsed seconds
Timing for main: time 2016-02-05_12:57:20 on domain   2:    2.14187 elapsed seconds
Timing for main: time 2016-02-05_12:57:33 on domain   3:     .24263 elapsed seconds
Timing for main: time 2016-02-05_12:57:46 on domain   3:     .22995 elapsed seconds
Timing for main: time 2016-02-05_12:58:00 on domain   3:     .23013 elapsed seconds
Timing for main: time 2016-02-05_12:57:40 on domain   4:     .28768 elapsed seconds
Timing for main: time 2016-02-05_12:58:00 on domain   4:     .27501 elapsed seconds
Timing for main: time 2016-02-05_12:58:00 on domain   2:    2.08317 elapsed seconds
Timing for main: time 2016-02-05_12:58:00 on domain   1:    6.75003 elapsed seconds
  photolysis_driver: called for domain  1
Timing for main: time 2016-02-05_12:58:13 on domain   3:     .24319 elapsed seconds
Timing for main: time 2016-02-05_12:58:26 on domain   3:     .23099 elapsed seconds
Timing for main: time 2016-02-05_12:58:40 on domain   3:     .22926 elapsed seconds
Timing for main: time 2016-02-05_12:58:20 on domain   4:     .28776 elapsed seconds
Timing for main: time 2016-02-05_12:58:40 on domain   4:     .27447 elapsed seconds
Timing for main: time 2016-02-05_12:58:40 on domain   2:    2.11602 elapsed seconds
Timing for main: time 2016-02-05_12:58:53 on domain   3:     .24223 elapsed seconds
Timing for main: time 2016-02-05_12:59:06 on domain   3:     .23222 elapsed seconds
Timing for main: time 2016-02-05_12:59:20 on domain   3:     .23035 elapsed seconds
Timing for main: time 2016-02-05_12:59:00 on domain   4:     .28701 elapsed seconds
Timing for main: time 2016-02-05_12:59:20 on domain   4:     .27413 elapsed seconds
Timing for main: time 2016-02-05_12:59:20 on domain   2:    2.08422 elapsed seconds
  photolysis_driver: called for domain  2
Timing for main: time 2016-02-05_12:59:33 on domain   3:     .24260 elapsed seconds
Timing for main: time 2016-02-05_12:59:46 on domain   3:     .22973 elapsed seconds
  photolysis_driver: called for domain  3
Timing for main: time 2016-02-05_13:00:00 on domain   3:    1.38213 elapsed seconds
Timing for main: time 2016-02-05_12:59:40 on domain   4:     .28997 elapsed seconds
  photolysis_driver: called for domain  4
Timing for main: time 2016-02-05_13:00:00 on domain   4:    1.63289 elapsed seconds
Timing for main: time 2016-02-05_13:00:00 on domain   2:    6.00048 elapsed seconds
Timing for main: time 2016-02-05_13:00:00 on domain   1:   11.47761 elapsed seconds
Timing for Writing wrfout_d01_2016-02-05_13:00:00 for domain        1:    1.33582 elapsed seconds
  HOURLY EMISSIONS UPDATE TIME     3600.0        .0
 mediation_integrate: med_read_wrf_chem_emissions: Read emissions for time 2016-02-05_13:00:00
 **WARNING** Time in input file not being checked **WARNING**
Timing for Writing wrfout_d02_2016-02-05_13:00:00 for domain        2:    1.97084 elapsed seconds
Timing for Writing wrfout_d03_2016-02-05_13:00:00 for domain        3:    2.18383 elapsed seconds
Timing for main: time 2016-02-05_13:00:13 on domain   3:    2.68740 elapsed seconds
Timing for main: time 2016-02-05_13:00:26 on domain   3:     .26666 elapsed seconds
Timing for main: time 2016-02-05_13:00:40 on domain   3:     .23743 elapsed seconds
Timing for Writing wrfout_d04_2016-02-05_13:00:00 for domain        4:    1.81865 elapsed seconds
Timing for main: time 2016-02-05_13:00:20 on domain   4:    2.47446 elapsed seconds
Timing for main: time 2016-02-05_13:00:40 on domain   4:     .31720 elapsed seconds
Timing for main: time 2016-02-05_13:00:40 on domain   2:    9.14857 elapsed seconds
Timing for main: time 2016-02-05_13:00:53 on domain   3:     .24773 elapsed seconds
Timing for main: time 2016-02-05_13:01:06 on domain   3:     .22877 elapsed seconds
Timing for main: time 2016-02-05_13:01:20 on domain   3:     .24051 elapsed seconds
Timing for main: time 2016-02-05_13:01:00 on domain   4:     .28788 elapsed seconds
Timing for main: time 2016-02-05_13:01:20 on domain   4:     .27452 elapsed seconds
Timing for main: time 2016-02-05_13:01:20 on domain   2:    2.09465 elapsed seconds
Timing for main: time 2016-02-05_13:01:33 on domain   3:     .24272 elapsed seconds
Timing for main: time 2016-02-05_13:01:46 on domain   3:     .22993 elapsed seconds
Timing for main: time 2016-02-05_13:02:00 on domain   3:     .22979 elapsed seconds
Timing for main: time 2016-02-05_13:01:40 on domain   4:     .28802 elapsed seconds
Timing for main: time 2016-02-05_13:02:00 on domain   4:     .27488 elapsed seconds
Timing for main: time 2016-02-05_13:02:00 on domain   2:    2.08337 elapsed seconds
Timing for main: time 2016-02-05_13:02:00 on domain   1:   15.61110 elapsed seconds
Timing for main: time 2016-02-05_13:02:13 on domain   3:     .24259 elapsed seconds
Timing for main: time 2016-02-05_13:02:26 on domain   3:     .22954 elapsed seconds
Timing for main: time 2016-02-05_13:02:40 on domain   3:     .22970 elapsed seconds
Timing for main: time 2016-02-05_13:02:20 on domain   4:     .28760 elapsed seconds
Timing for main: time 2016-02-05_13:02:40 on domain   4:     .27485 elapsed seconds
Timing for main: time 2016-02-05_13:02:40 on domain   2:    2.10000 elapsed seconds
Timing for main: time 2016-02-05_13:02:53 on domain   3:     .24251 elapsed seconds
Timing for main: time 2016-02-05_13:03:06 on domain   3:     .22953 elapsed seconds
Timing for main: time 2016-02-05_13:03:20 on domain   3:     .23002 elapsed seconds
Timing for main: time 2016-02-05_13:03:00 on domain   4:     .31798 elapsed seconds
Timing for main: time 2016-02-05_13:03:20 on domain   4:     .29553 elapsed seconds
Timing for main: time 2016-02-05_13:03:20 on domain   2:    2.13391 elapsed seconds
Timing for main: time 2016-02-05_13:03:33 on domain   3:     .24285 elapsed seconds
Timing for main: time 2016-02-05_13:03:46 on domain   3:     .23287 elapsed seconds
Timing for main: time 2016-02-05_13:04:00 on domain   3:     .25851 elapsed seconds
Timing for main: time 2016-02-05_13:03:40 on domain   4:     .28801 elapsed seconds
Timing for main: time 2016-02-05_13:04:00 on domain   4:     .27440 elapsed seconds
Timing for main: time 2016-02-05_13:04:00 on domain   2:    2.12905 elapsed seconds
Timing for main: time 2016-02-05_13:04:00 on domain   1:    6.77718 elapsed seconds
Timing for main: time 2016-02-05_13:04:13 on domain   3:     .24248 elapsed seconds
Timing for main: time 2016-02-05_13:04:26 on domain   3:     .22994 elapsed seconds
Timing for main: time 2016-02-05_13:04:40 on domain   3:     .23007 elapsed seconds
Timing for main: time 2016-02-05_13:04:20 on domain   4:     .28711 elapsed seconds
Timing for main: time 2016-02-05_13:04:40 on domain   4:     .33058 elapsed seconds
Timing for main: time 2016-02-05_13:04:40 on domain   2:    2.15792 elapsed seconds
Timing for main: time 2016-02-05_13:04:53 on domain   3:     .24224 elapsed seconds
Timing for main: time 2016-02-05_13:05:06 on domain   3:     .22972 elapsed seconds
Timing for main: time 2016-02-05_13:05:20 on domain   3:     .23008 elapsed seconds
Timing for main: time 2016-02-05_13:05:00 on domain   4:     .29998 elapsed seconds
Timing for main: time 2016-02-05_13:05:20 on domain   4:     .27544 elapsed seconds
Timing for main: time 2016-02-05_13:05:20 on domain   2:    2.14925 elapsed seconds
Timing for main: time 2016-02-05_13:05:33 on domain   3:     .24246 elapsed seconds
Timing for main: time 2016-02-05_13:05:46 on domain   3:     .22982 elapsed seconds
Timing for main: time 2016-02-05_13:06:00 on domain   3:     .23292 elapsed seconds
Timing for main: time 2016-02-05_13:05:40 on domain   4:     .28689 elapsed seconds
Timing for main: time 2016-02-05_13:06:00 on domain   4:     .27424 elapsed seconds
Timing for main: time 2016-02-05_13:06:00 on domain   2:    2.08155 elapsed seconds
Timing for main: time 2016-02-05_13:06:00 on domain   1:    6.81049 elapsed seconds
Timing for main: time 2016-02-05_13:06:13 on domain   3:     .24350 elapsed seconds
Timing for main: time 2016-02-05_13:06:26 on domain   3:     .29243 elapsed seconds
Timing for main: time 2016-02-05_13:06:40 on domain   3:     .26197 elapsed seconds
Timing for main: time 2016-02-05_13:06:20 on domain   4:     .28752 elapsed seconds
Timing for main: time 2016-02-05_13:06:40 on domain   4:     .28350 elapsed seconds
Timing for main: time 2016-02-05_13:06:40 on domain   2:    2.20784 elapsed seconds
Timing for main: time 2016-02-05_13:06:53 on domain   3:     .28191 elapsed seconds
Timing for main: time 2016-02-05_13:07:06 on domain   3:     .24307 elapsed seconds
Timing for main: time 2016-02-05_13:07:20 on domain   3:     .23110 elapsed seconds
Timing for main: time 2016-02-05_13:07:00 on domain   4:     .29151 elapsed seconds
Timing for main: time 2016-02-05_13:07:20 on domain   4:     .27463 elapsed seconds
Timing for main: time 2016-02-05_13:07:20 on domain   2:    2.14145 elapsed seconds
Timing for main: time 2016-02-05_13:07:33 on domain   3:     .24266 elapsed seconds
Timing for main: time 2016-02-05_13:07:46 on domain   3:     .23369 elapsed seconds
Timing for main: time 2016-02-05_13:08:00 on domain   3:     .22984 elapsed seconds
Timing for main: time 2016-02-05_13:07:40 on domain   4:     .28773 elapsed seconds
Timing for main: time 2016-02-05_13:08:00 on domain   4:     .27550 elapsed seconds
Timing for main: time 2016-02-05_13:08:00 on domain   2:    2.08725 elapsed seconds
Timing for main: time 2016-02-05_13:08:00 on domain   1:    6.85014 elapsed seconds
Timing for main: time 2016-02-05_13:08:13 on domain   3:     .24251 elapsed seconds
Timing for main: time 2016-02-05_13:08:26 on domain   3:     .23035 elapsed seconds
Timing for main: time 2016-02-05_13:08:40 on domain   3:     .22965 elapsed seconds
Timing for main: time 2016-02-05_13:08:20 on domain   4:     .28767 elapsed seconds
Timing for main: time 2016-02-05_13:08:40 on domain   4:     .27586 elapsed seconds
Timing for main: time 2016-02-05_13:08:40 on domain   2:    2.10234 elapsed seconds
Timing for main: time 2016-02-05_13:08:53 on domain   3:     .24302 elapsed seconds
Timing for main: time 2016-02-05_13:09:06 on domain   3:     .23018 elapsed seconds
Timing for main: time 2016-02-05_13:09:20 on domain   3:     .22971 elapsed seconds
Timing for main: time 2016-02-05_13:09:00 on domain   4:     .28740 elapsed seconds
Timing for main: time 2016-02-05_13:09:20 on domain   4:     .27436 elapsed seconds
Timing for main: time 2016-02-05_13:09:20 on domain   2:    2.09682 elapsed seconds
Timing for main: time 2016-02-05_13:09:33 on domain   3:     .24266 elapsed seconds
Timing for main: time 2016-02-05_13:09:46 on domain   3:     .23064 elapsed seconds
Timing for main: time 2016-02-05_13:10:00 on domain   3:     .23547 elapsed seconds
Timing for main: time 2016-02-05_13:09:40 on domain   4:     .28707 elapsed seconds
Timing for main: time 2016-02-05_13:10:00 on domain   4:     .28945 elapsed seconds
Timing for main: time 2016-02-05_13:10:00 on domain   2:    2.16915 elapsed seconds
Timing for main: time 2016-02-05_13:10:00 on domain   1:    6.78122 elapsed seconds
Timing for main: time 2016-02-05_13:10:13 on domain   3:     .24262 elapsed seconds
Timing for main: time 2016-02-05_13:10:26 on domain   3:     .23010 elapsed seconds
Timing for main: time 2016-02-05_13:10:40 on domain   3:     .22976 elapsed seconds
Timing for main: time 2016-02-05_13:10:20 on domain   4:     .28688 elapsed seconds
Timing for main: time 2016-02-05_13:10:40 on domain   4:     .27592 elapsed seconds
Timing for main: time 2016-02-05_13:10:40 on domain   2:    2.10209 elapsed seconds
Timing for main: time 2016-02-05_13:10:53 on domain   3:     .24252 elapsed seconds
Timing for main: time 2016-02-05_13:11:06 on domain   3:     .23020 elapsed seconds
Timing for main: time 2016-02-05_13:11:20 on domain   3:     .23003 elapsed seconds
Timing for main: time 2016-02-05_13:11:00 on domain   4:     .28789 elapsed seconds
Timing for main: time 2016-02-05_13:11:20 on domain   4:     .27469 elapsed seconds
Timing for main: time 2016-02-05_13:11:20 on domain   2:    2.08273 elapsed seconds
Timing for main: time 2016-02-05_13:11:33 on domain   3:     .25303 elapsed seconds
Timing for main: time 2016-02-05_13:11:46 on domain   3:     .22995 elapsed seconds
Timing for main: time 2016-02-05_13:12:00 on domain   3:     .22974 elapsed seconds
Timing for main: time 2016-02-05_13:11:40 on domain   4:     .28786 elapsed seconds
Timing for main: time 2016-02-05_13:12:00 on domain   4:     .27415 elapsed seconds
Timing for main: time 2016-02-05_13:12:00 on domain   2:    2.09300 elapsed seconds
Timing for main: time 2016-02-05_13:12:00 on domain   1:    6.69829 elapsed seconds
Timing for main: time 2016-02-05_13:12:13 on domain   3:     .24231 elapsed seconds
Timing for main: time 2016-02-05_13:12:26 on domain   3:     .23098 elapsed seconds
Timing for main: time 2016-02-05_13:12:40 on domain   3:     .23007 elapsed seconds
Timing for main: time 2016-02-05_13:12:20 on domain   4:     .28696 elapsed seconds
Timing for main: time 2016-02-05_13:12:40 on domain   4:     .27643 elapsed seconds
Timing for main: time 2016-02-05_13:12:40 on domain   2:    2.10339 elapsed seconds
Timing for main: time 2016-02-05_13:12:53 on domain   3:     .24491 elapsed seconds
Timing for main: time 2016-02-05_13:13:06 on domain   3:     .23117 elapsed seconds
Timing for main: time 2016-02-05_13:13:20 on domain   3:     .23015 elapsed seconds
Timing for main: time 2016-02-05_13:13:00 on domain   4:     .28831 elapsed seconds
Timing for main: time 2016-02-05_13:13:20 on domain   4:     .27483 elapsed seconds
Timing for main: time 2016-02-05_13:13:20 on domain   2:    2.08787 elapsed seconds
Timing for main: time 2016-02-05_13:13:33 on domain   3:     .24279 elapsed seconds
Timing for main: time 2016-02-05_13:13:46 on domain   3:     .23046 elapsed seconds
Timing for main: time 2016-02-05_13:14:00 on domain   3:     .23018 elapsed seconds
Timing for main: time 2016-02-05_13:13:40 on domain   4:     .28756 elapsed seconds
Timing for main: time 2016-02-05_13:14:00 on domain   4:     .27474 elapsed seconds
Timing for main: time 2016-02-05_13:14:00 on domain   2:    2.08456 elapsed seconds
Timing for main: time 2016-02-05_13:14:00 on domain   1:    6.68921 elapsed seconds
Timing for main: time 2016-02-05_13:14:13 on domain   3:     .24252 elapsed seconds
Timing for main: time 2016-02-05_13:14:26 on domain   3:     .22991 elapsed seconds
Timing for main: time 2016-02-05_13:14:40 on domain   3:     .22992 elapsed seconds
Timing for main: time 2016-02-05_13:14:20 on domain   4:     .33169 elapsed seconds
Timing for main: time 2016-02-05_13:14:40 on domain   4:     .28583 elapsed seconds
Timing for main: time 2016-02-05_13:14:40 on domain   2:    2.16889 elapsed seconds
Timing for main: time 2016-02-05_13:14:53 on domain   3:     .24296 elapsed seconds
Timing for main: time 2016-02-05_13:15:06 on domain   3:     .22960 elapsed seconds
Timing for main: time 2016-02-05_13:15:20 on domain   3:     .23149 elapsed seconds
Timing for main: time 2016-02-05_13:15:00 on domain   4:     .30140 elapsed seconds
Timing for main: time 2016-02-05_13:15:20 on domain   4:     .27665 elapsed seconds
Timing for main: time 2016-02-05_13:15:20 on domain   2:    2.10055 elapsed seconds
Timing for main: time 2016-02-05_13:15:33 on domain   3:     .24254 elapsed seconds
Timing for main: time 2016-02-05_13:15:46 on domain   3:     .23246 elapsed seconds
Timing for main: time 2016-02-05_13:16:00 on domain   3:     .27161 elapsed seconds
Timing for main: time 2016-02-05_13:15:40 on domain   4:     .29004 elapsed seconds
Timing for main: time 2016-02-05_13:16:00 on domain   4:     .28363 elapsed seconds
Timing for main: time 2016-02-05_13:16:00 on domain   2:    2.18856 elapsed seconds
Timing for main: time 2016-02-05_13:16:00 on domain   1:    6.87109 elapsed seconds
Timing for main: time 2016-02-05_13:16:13 on domain   3:     .24242 elapsed seconds
Timing for main: time 2016-02-05_13:16:26 on domain   3:     .23024 elapsed seconds
Timing for main: time 2016-02-05_13:16:40 on domain   3:     .24066 elapsed seconds
Timing for main: time 2016-02-05_13:16:20 on domain   4:     .28720 elapsed seconds
Timing for main: time 2016-02-05_13:16:40 on domain   4:     .27585 elapsed seconds
Timing for main: time 2016-02-05_13:16:40 on domain   2:    2.12007 elapsed seconds
Timing for main: time 2016-02-05_13:16:53 on domain   3:     .32010 elapsed seconds
Timing for main: time 2016-02-05_13:17:06 on domain   3:     .27746 elapsed seconds
Timing for main: time 2016-02-05_13:17:20 on domain   3:     .22857 elapsed seconds
Timing for main: time 2016-02-05_13:17:00 on domain   4:     .28749 elapsed seconds
Timing for main: time 2016-02-05_13:17:20 on domain   4:     .27397 elapsed seconds
Timing for main: time 2016-02-05_13:17:20 on domain   2:    2.24733 elapsed seconds
[...]
Timing for main: time 2016-02-05_17:36:00 on domain   2:    2.11464 elapsed seconds
Timing for main: time 2016-02-05_17:36:00 on domain   1:    6.80615 elapsed seconds
Timing for main: time 2016-02-05_17:36:13 on domain   3:     .24323 elapsed seconds
Timing for main: time 2016-02-05_17:36:26 on domain   3:     .23126 elapsed seconds
Timing for main: time 2016-02-05_17:36:40 on domain   3:     .23127 elapsed seconds
Timing for main: time 2016-02-05_17:36:20 on domain   4:     .28405 elapsed seconds
Timing for main: time 2016-02-05_17:36:40 on domain   4:     .27667 elapsed seconds
Timing for main: time 2016-02-05_17:36:40 on domain   2:    2.10687 elapsed seconds
Timing for main: time 2016-02-05_17:36:53 on domain   3:     .25308 elapsed seconds
Timing for main: time 2016-02-05_17:37:06 on domain   3:     .23123 elapsed seconds
Timing for main: time 2016-02-05_17:37:20 on domain   3:     .24290 elapsed seconds
Timing for main: time 2016-02-05_17:37:00 on domain   4:     .28660 elapsed seconds
Timing for main: time 2016-02-05_17:37:20 on domain   4:     .27706 elapsed seconds
Timing for main: time 2016-02-05_17:37:20 on domain   2:    2.12171 elapsed seconds
Timing for main: time 2016-02-05_17:37:33 on domain   3:     .24367 elapsed seconds
Timing for main: time 2016-02-05_17:37:46 on domain   3:     .23127 elapsed seconds
Timing for main: time 2016-02-05_17:38:00 on domain   3:     .23395 elapsed seconds
Timing for main: time 2016-02-05_17:37:40 on domain   4:     .29137 elapsed seconds
Timing for main: time 2016-02-05_17:38:00 on domain   4:     .29952 elapsed seconds
Timing for main: time 2016-02-05_17:38:00 on domain   2:    2.15213 elapsed seconds
Timing for main: time 2016-02-05_17:38:00 on domain   1:    6.79820 elapsed seconds
Timing for main: time 2016-02-05_17:38:13 on domain   3:     .24409 elapsed seconds
Timing for main: time 2016-02-05_17:38:26 on domain   3:     .23133 elapsed seconds
Timing for main: time 2016-02-05_17:38:40 on domain   3:     .23175 elapsed seconds
Timing for main: time 2016-02-05_17:38:20 on domain   4:     .28626 elapsed seconds
Timing for main: time 2016-02-05_17:38:40 on domain   4:     .27712 elapsed seconds
Timing for main: time 2016-02-05_17:38:40 on domain   2:    2.10716 elapsed seconds
Timing for main: time 2016-02-05_17:38:53 on domain   3:     .24374 elapsed seconds
Timing for main: time 2016-02-05_17:39:06 on domain   3:     .23152 elapsed seconds
Timing for main: time 2016-02-05_17:39:20 on domain   3:     .23079 elapsed seconds
Timing for main: time 2016-02-05_17:39:00 on domain   4:     .31085 elapsed seconds
Timing for main: time 2016-02-05_17:39:20 on domain   4:     .33534 elapsed seconds
Timing for main: time 2016-02-05_17:39:20 on domain   2:    2.17366 elapsed seconds
Timing for main: time 2016-02-05_17:39:33 on domain   3:     .24280 elapsed seconds
Timing for main: time 2016-02-05_17:39:46 on domain   3:     .23117 elapsed seconds
Timing for main: time 2016-02-05_17:40:00 on domain   3:     .23140 elapsed seconds
Timing for main: time 2016-02-05_17:39:40 on domain   4:     .28669 elapsed seconds
Timing for main: time 2016-02-05_17:40:00 on domain   4:     .28974 elapsed seconds
Timing for main: time 2016-02-05_17:40:00 on domain   2:    2.10445 elapsed seconds
Timing for main: time 2016-02-05_17:40:00 on domain   1:    6.88736 elapsed seconds
Timing for main: time 2016-02-05_17:40:13 on domain   3:     .24657 elapsed seconds
Timing for main: time 2016-02-05_17:40:26 on domain   3:     .23322 elapsed seconds
Timing for main: time 2016-02-05_17:40:40 on domain   3:     .23132 elapsed seconds
Timing for main: time 2016-02-05_17:40:20 on domain   4:     .28830 elapsed seconds
Timing for main: time 2016-02-05_17:40:40 on domain   4:     .27628 elapsed seconds
Timing for main: time 2016-02-05_17:40:40 on domain   2:    2.11268 elapsed seconds
Timing for main: time 2016-02-05_17:40:53 on domain   3:     .24518 elapsed seconds
Timing for main: time 2016-02-05_17:41:06 on domain   3:     .23151 elapsed seconds
Timing for main: time 2016-02-05_17:41:20 on domain   3:     .23426 elapsed seconds
Timing for main: time 2016-02-05_17:41:00 on domain   4:     .28708 elapsed seconds
Timing for main: time 2016-02-05_17:41:20 on domain   4:     .27620 elapsed seconds
Timing for main: time 2016-02-05_17:41:20 on domain   2:    2.10925 elapsed seconds
Timing for main: time 2016-02-05_17:41:33 on domain   3:     .24281 elapsed seconds
Timing for main: time 2016-02-05_17:41:46 on domain   3:     .23169 elapsed seconds
Timing for main: time 2016-02-05_17:42:00 on domain   3:     .23150 elapsed seconds
Timing for main: time 2016-02-05_17:41:40 on domain   4:     .28697 elapsed seconds
Timing for main: time 2016-02-05_17:42:00 on domain   4:     .27677 elapsed seconds
Timing for main: time 2016-02-05_17:42:00 on domain   2:    2.09197 elapsed seconds
Timing for main: time 2016-02-05_17:42:00 on domain   1:    6.74197 elapsed seconds
Timing for main: time 2016-02-05_17:42:13 on domain   3:     .24405 elapsed seconds
Timing for main: time 2016-02-05_17:42:26 on domain   3:     .24414 elapsed seconds
Timing for main: time 2016-02-05_17:42:40 on domain   3:     .22961 elapsed seconds
Timing for main: time 2016-02-05_17:42:20 on domain   4:     .28708 elapsed seconds
Timing for main: time 2016-02-05_17:42:40 on domain   4:     .27683 elapsed seconds
Timing for main: time 2016-02-05_17:42:40 on domain   2:    2.11957 elapsed seconds
Timing for main: time 2016-02-05_17:42:53 on domain   3:     .24380 elapsed seconds
Timing for main: time 2016-02-05_17:43:06 on domain   3:     .23110 elapsed seconds
Timing for main: time 2016-02-05_17:43:20 on domain   3:     .23174 elapsed seconds
Timing for main: time 2016-02-05_17:43:00 on domain   4:     .28650 elapsed seconds
Timing for main: time 2016-02-05_17:43:20 on domain   4:     .27903 elapsed seconds
Timing for main: time 2016-02-05_17:43:20 on domain   2:    2.09407 elapsed seconds
Timing for main: time 2016-02-05_17:43:33 on domain   3:     .24697 elapsed seconds
Timing for main: time 2016-02-05_17:43:46 on domain   3:     .23146 elapsed seconds
Timing for main: time 2016-02-05_17:44:00 on domain   3:     .23110 elapsed seconds
Timing for main: time 2016-02-05_17:43:40 on domain   4:     .28671 elapsed seconds
Timing for main: time 2016-02-05_17:44:00 on domain   4:     .27782 elapsed seconds
Timing for main: time 2016-02-05_17:44:00 on domain   2:    2.09607 elapsed seconds
Timing for main: time 2016-02-05_17:44:00 on domain   1:    6.72608 elapsed seconds
Timing for main: time 2016-02-05_17:44:13 on domain   3:     .24512 elapsed seconds
Timing for main: time 2016-02-05_17:44:26 on domain   3:     .23133 elapsed seconds
Timing for main: time 2016-02-05_17:44:40 on domain   3:     .23142 elapsed seconds
Timing for main: time 2016-02-05_17:44:20 on domain   4:     .28645 elapsed seconds
Timing for main: time 2016-02-05_17:44:40 on domain   4:     .27687 elapsed seconds
Timing for main: time 2016-02-05_17:44:40 on domain   2:    2.16815 elapsed seconds
Timing for main: time 2016-02-05_17:44:53 on domain   3:     .24330 elapsed seconds
Timing for main: time 2016-02-05_17:45:06 on domain   3:     .23133 elapsed seconds
Timing for main: time 2016-02-05_17:45:20 on domain   3:     .23257 elapsed seconds
Timing for main: time 2016-02-05_17:45:00 on domain   4:     .34634 elapsed seconds
Timing for main: time 2016-02-05_17:45:20 on domain   4:     .27785 elapsed seconds
Timing for main: time 2016-02-05_17:45:20 on domain   2:    2.15367 elapsed seconds
Timing for main: time 2016-02-05_17:45:33 on domain   3:     .24375 elapsed seconds
Timing for main: time 2016-02-05_17:45:46 on domain   3:     .23746 elapsed seconds
Timing for main: time 2016-02-05_17:46:00 on domain   3:     .23143 elapsed seconds
Timing for main: time 2016-02-05_17:45:40 on domain   4:     .28021 elapsed seconds
Timing for main: time 2016-02-05_17:46:00 on domain   4:     .27630 elapsed seconds
Timing for main: time 2016-02-05_17:46:00 on domain   2:    2.09532 elapsed seconds
Timing for main: time 2016-02-05_17:46:00 on domain   1:    6.83665 elapsed seconds
Timing for main: time 2016-02-05_17:46:13 on domain   3:     .24316 elapsed seconds
Timing for main: time 2016-02-05_17:46:26 on domain   3:     .23202 elapsed seconds
Timing for main: time 2016-02-05_17:46:40 on domain   3:     .23090 elapsed seconds
Timing for main: time 2016-02-05_17:46:20 on domain   4:     .28675 elapsed seconds
Timing for main: time 2016-02-05_17:46:40 on domain   4:     .28197 elapsed seconds
Timing for main: time 2016-02-05_17:46:40 on domain   2:    2.12652 elapsed seconds
Timing for main: time 2016-02-05_17:46:53 on domain   3:     .24367 elapsed seconds
Timing for main: time 2016-02-05_17:47:06 on domain   3:     .23121 elapsed seconds
Timing for main: time 2016-02-05_17:47:20 on domain   3:     .23135 elapsed seconds
Timing for main: time 2016-02-05_17:47:00 on domain   4:     .28655 elapsed seconds
Timing for main: time 2016-02-05_17:47:20 on domain   4:     .27652 elapsed seconds
Timing for main: time 2016-02-05_17:47:20 on domain   2:    2.08780 elapsed seconds
Timing for main: time 2016-02-05_17:47:33 on domain   3:     .25355 elapsed seconds
Timing for main: time 2016-02-05_17:47:46 on domain   3:     .23143 elapsed seconds
Timing for main: time 2016-02-05_17:48:00 on domain   3:     .23139 elapsed seconds
Timing for main: time 2016-02-05_17:47:40 on domain   4:     .28623 elapsed seconds
Timing for main: time 2016-02-05_17:48:00 on domain   4:     .27663 elapsed seconds
Timing for main: time 2016-02-05_17:48:00 on domain   2:    2.10203 elapsed seconds
Timing for main: time 2016-02-05_17:48:00 on domain   1:    6.74234 elapsed seconds
Timing for main: time 2016-02-05_17:48:13 on domain   3:     .24410 elapsed seconds
Timing for main: time 2016-02-05_17:48:26 on domain   3:     .23145 elapsed seconds
Timing for main: time 2016-02-05_17:48:40 on domain   3:     .23161 elapsed seconds
Timing for main: time 2016-02-05_17:48:20 on domain   4:     .28669 elapsed seconds
Timing for main: time 2016-02-05_17:48:40 on domain   4:     .27712 elapsed seconds
Timing for main: time 2016-02-05_17:48:40 on domain   2:    2.10744 elapsed seconds
Timing for main: time 2016-02-05_17:48:53 on domain   3:     .24371 elapsed seconds
Timing for main: time 2016-02-05_17:49:06 on domain   3:     .23301 elapsed seconds
Timing for main: time 2016-02-05_17:49:20 on domain   3:     .23124 elapsed seconds
Timing for main: time 2016-02-05_17:49:00 on domain   4:     .28883 elapsed seconds
Timing for main: time 2016-02-05_17:49:20 on domain   4:     .27627 elapsed seconds
Timing for main: time 2016-02-05_17:49:20 on domain   2:    2.09347 elapsed seconds
Timing for main: time 2016-02-05_17:49:33 on domain   3:     .24340 elapsed seconds
Timing for main: time 2016-02-05_17:49:46 on domain   3:     .23096 elapsed seconds
Timing for main: time 2016-02-05_17:50:00 on domain   3:     .23144 elapsed seconds
Timing for main: time 2016-02-05_17:49:40 on domain   4:     .28795 elapsed seconds
Timing for main: time 2016-02-05_17:50:00 on domain   4:     .28939 elapsed seconds
Timing for main: time 2016-02-05_17:50:00 on domain   2:    2.10592 elapsed seconds
Timing for main: time 2016-02-05_17:50:00 on domain   1:    6.72359 elapsed seconds
Timing for main: time 2016-02-05_17:50:13 on domain   3:     .24353 elapsed seconds
Timing for main: time 2016-02-05_17:50:26 on domain   3:     .23180 elapsed seconds
Timing for main: time 2016-02-05_17:50:40 on domain   3:     .23144 elapsed seconds
Timing for main: time 2016-02-05_17:50:20 on domain   4:     .28691 elapsed seconds
Timing for main: time 2016-02-05_17:50:40 on domain   4:     .27679 elapsed seconds
Timing for main: time 2016-02-05_17:50:40 on domain   2:    2.10805 elapsed seconds
Timing for main: time 2016-02-05_17:50:53 on domain   3:     .24292 elapsed seconds
Timing for main: time 2016-02-05_17:51:06 on domain   3:     .23288 elapsed seconds
Timing for main: time 2016-02-05_17:51:20 on domain   3:     .23171 elapsed seconds
Timing for main: time 2016-02-05_17:51:00 on domain   4:     .28686 elapsed seconds
Timing for main: time 2016-02-05_17:51:20 on domain   4:     .27609 elapsed seconds
Timing for main: time 2016-02-05_17:51:20 on domain   2:    2.09237 elapsed seconds
Timing for main: time 2016-02-05_17:51:33 on domain   3:     .24393 elapsed seconds
Timing for main: time 2016-02-05_17:51:46 on domain   3:     .23151 elapsed seconds
Timing for main: time 2016-02-05_17:52:00 on domain   3:     .23141 elapsed seconds
Timing for main: time 2016-02-05_17:51:40 on domain   4:     .28807 elapsed seconds
Timing for main: time 2016-02-05_17:52:00 on domain   4:     .27678 elapsed seconds
Timing for main: time 2016-02-05_17:52:00 on domain   2:    2.10494 elapsed seconds
Timing for main: time 2016-02-05_17:52:00 on domain   1:    6.72262 elapsed seconds
Timing for main: time 2016-02-05_17:52:13 on domain   3:     .24305 elapsed seconds
Timing for main: time 2016-02-05_17:52:26 on domain   3:     .23412 elapsed seconds
Timing for main: time 2016-02-05_17:52:40 on domain   3:     .24426 elapsed seconds
Timing for main: time 2016-02-05_17:52:20 on domain   4:     .28632 elapsed seconds
Timing for main: time 2016-02-05_17:52:40 on domain   4:     .27637 elapsed seconds
Timing for main: time 2016-02-05_17:52:40 on domain   2:    2.12209 elapsed seconds
Timing for main: time 2016-02-05_17:52:53 on domain   3:     .24338 elapsed seconds
Timing for main: time 2016-02-05_17:53:06 on domain   3:     .23504 elapsed seconds
Timing for main: time 2016-02-05_17:53:20 on domain   3:     .23147 elapsed seconds
Timing for main: time 2016-02-05_17:53:00 on domain   4:     .28689 elapsed seconds
Timing for main: time 2016-02-05_17:53:20 on domain   4:     .27611 elapsed seconds
Timing for main: time 2016-02-05_17:53:20 on domain   2:    2.09571 elapsed seconds
Timing for main: time 2016-02-05_17:53:33 on domain   3:     .24321 elapsed seconds
Timing for main: time 2016-02-05_17:53:46 on domain   3:     .23161 elapsed seconds
Timing for main: time 2016-02-05_17:54:00 on domain   3:     .23127 elapsed seconds
Timing for main: time 2016-02-05_17:53:40 on domain   4:     .28662 elapsed seconds
Timing for main: time 2016-02-05_17:54:00 on domain   4:     .27704 elapsed seconds
Timing for main: time 2016-02-05_17:54:00 on domain   2:    2.09054 elapsed seconds
Timing for main: time 2016-02-05_17:54:00 on domain   1:    6.73469 elapsed seconds
Timing for main: time 2016-02-05_17:54:13 on domain   3:     .24127 elapsed seconds
Timing for main: time 2016-02-05_17:54:26 on domain   3:     .23168 elapsed seconds
Timing for main: time 2016-02-05_17:54:40 on domain   3:     .23135 elapsed seconds
Timing for main: time 2016-02-05_17:54:20 on domain   4:     .28786 elapsed seconds
Timing for main: time 2016-02-05_17:54:40 on domain   4:     .27710 elapsed seconds
Timing for main: time 2016-02-05_17:54:40 on domain   2:    2.10922 elapsed seconds
Timing for main: time 2016-02-05_17:54:53 on domain   3:     .24341 elapsed seconds
Timing for main: time 2016-02-05_17:55:06 on domain   3:     .23216 elapsed seconds
Timing for main: time 2016-02-05_17:55:20 on domain   3:     .23115 elapsed seconds
Timing for main: time 2016-02-05_17:55:00 on domain   4:     .29936 elapsed seconds
Timing for main: time 2016-02-05_17:55:20 on domain   4:     .27661 elapsed seconds
Timing for main: time 2016-02-05_17:55:20 on domain   2:    2.10463 elapsed seconds
Timing for main: time 2016-02-05_17:55:33 on domain   3:     .24369 elapsed seconds
Timing for main: time 2016-02-05_17:55:46 on domain   3:     .23729 elapsed seconds
Timing for main: time 2016-02-05_17:56:00 on domain   3:     .22964 elapsed seconds
Timing for main: time 2016-02-05_17:55:40 on domain   4:     .28554 elapsed seconds
Timing for main: time 2016-02-05_17:56:00 on domain   4:     .27700 elapsed seconds
Timing for main: time 2016-02-05_17:56:00 on domain   2:    2.09466 elapsed seconds
Timing for main: time 2016-02-05_17:56:00 on domain   1:    6.72502 elapsed seconds
Timing for main: time 2016-02-05_17:56:13 on domain   3:     .24386 elapsed seconds
Timing for main: time 2016-02-05_17:56:26 on domain   3:     .23165 elapsed seconds
Timing for main: time 2016-02-05_17:56:40 on domain   3:     .23121 elapsed seconds
Timing for main: time 2016-02-05_17:56:20 on domain   4:     .28632 elapsed seconds
Timing for main: time 2016-02-05_17:56:40 on domain   4:     .27779 elapsed seconds
Timing for main: time 2016-02-05_17:56:40 on domain   2:    2.10757 elapsed seconds
Timing for main: time 2016-02-05_17:56:53 on domain   3:     .24411 elapsed seconds
Timing for main: time 2016-02-05_17:57:06 on domain   3:     .23136 elapsed seconds
Timing for main: time 2016-02-05_17:57:20 on domain   3:     .23165 elapsed seconds
Timing for main: time 2016-02-05_17:57:00 on domain   4:     .28619 elapsed seconds
Timing for main: time 2016-02-05_17:57:20 on domain   4:     .27564 elapsed seconds
Timing for main: time 2016-02-05_17:57:20 on domain   2:    2.10539 elapsed seconds
Timing for main: time 2016-02-05_17:57:33 on domain   3:     .24399 elapsed seconds
Timing for main: time 2016-02-05_17:57:46 on domain   3:     .24209 elapsed seconds
Timing for main: time 2016-02-05_17:58:00 on domain   3:     .23105 elapsed seconds
Timing for main: time 2016-02-05_17:57:40 on domain   4:     .28835 elapsed seconds
Timing for main: time 2016-02-05_17:58:00 on domain   4:     .27559 elapsed seconds
Timing for main: time 2016-02-05_17:58:00 on domain   2:    2.10215 elapsed seconds
Timing for main: time 2016-02-05_17:58:00 on domain   1:    6.73207 elapsed seconds
  photolysis_driver: called for domain  1
Timing for main: time 2016-02-05_17:58:13 on domain   3:     .24356 elapsed seconds
Timing for main: time 2016-02-05_17:58:26 on domain   3:     .23271 elapsed seconds
Timing for main: time 2016-02-05_17:58:40 on domain   3:     .23217 elapsed seconds
Timing for main: time 2016-02-05_17:58:20 on domain   4:     .28609 elapsed seconds
Timing for main: time 2016-02-05_17:58:40 on domain   4:     .27736 elapsed seconds
Timing for main: time 2016-02-05_17:58:40 on domain   2:    2.10918 elapsed seconds
Timing for main: time 2016-02-05_17:58:53 on domain   3:     .24441 elapsed seconds
Timing for main: time 2016-02-05_17:59:06 on domain   3:     .23175 elapsed seconds
Timing for main: time 2016-02-05_17:59:20 on domain   3:     .23136 elapsed seconds
Timing for main: time 2016-02-05_17:59:00 on domain   4:     .28627 elapsed seconds
Timing for main: time 2016-02-05_17:59:20 on domain   4:     .27680 elapsed seconds
Timing for main: time 2016-02-05_17:59:20 on domain   2:    2.09243 elapsed seconds
  photolysis_driver: called for domain  2
Timing for main: time 2016-02-05_17:59:33 on domain   3:     .24403 elapsed seconds
Timing for main: time 2016-02-05_17:59:46 on domain   3:     .23142 elapsed seconds
  photolysis_driver: called for domain  3
Timing for main: time 2016-02-05_18:00:00 on domain   3:    1.38369 elapsed seconds
Timing for Writing wrfout_d03_2016-02-05_18:00:00 for domain        3:    1.65315 elapsed seconds
Timing for main: time 2016-02-05_17:59:40 on domain   4:     .31443 elapsed seconds
  photolysis_driver: called for domain  4
Timing for main: time 2016-02-05_18:00:00 on domain   4:    1.65912 elapsed seconds
Timing for Writing wrfout_d04_2016-02-05_18:00:00 for domain        4:    1.83032 elapsed seconds
Timing for main: time 2016-02-05_18:00:00 on domain   2:    9.53387 elapsed seconds
Timing for Writing wrfout_d02_2016-02-05_18:00:00 for domain        2:    2.81430 elapsed seconds
Timing for main: time 2016-02-05_18:00:00 on domain   1:   17.72494 elapsed seconds
Timing for Writing wrfout_d01_2016-02-05_18:00:00 for domain        1:    2.76062 elapsed seconds
 d01 2016-02-05_18:00:00 wrf: SUCCESS COMPLETE WRF
