taskid: 0 hostname: p10a51.pbm.ihost.com
  Ntasks in X  10 , ntasks in Y  16
 Setting blank km_opt entries to domain #1 values.
  --> The km_opt entry in the namelist.input is now max_domains.
 Setting blank diff_opt entries to domain #1 values.
  --> The diff_opt entry in the namelist.input is now max_domains.
 --- WARNING: traj_opt is zero, but num_traj is not zero; setting num_traj to zero.
 --- NOTE: hypsometric_opt is 2, setting adjust_heights = F
 --- NOTE: sst_update is 0, setting io_form_auxinput4 = 0 and auxinput4_interval = 0 for all domains
 --- NOTE: sst_update is 0, setting io_form_auxinput4 = 0 and auxinput4_interval = 0 for all domains
 --- NOTE: sst_update is 0, setting io_form_auxinput4 = 0 and auxinput4_interval = 0 for all domains
 --- NOTE: sst_update is 0, setting io_form_auxinput4 = 0 and auxinput4_interval = 0 for all domains
 --- NOTE: grid_fdda is 0 for domain      1, setting gfdda interval and ending time to 0 for that domain.
 --- NOTE: both grid_sfdda and pxlsm_soil_nudge are 0 for domain      1, setting sgfdda interval and ending time to 0 for that domain.
 --- NOTE: obs_nudge_opt is 0 for domain      1, setting obs nudging interval and ending time to 0 for that domain.
 --- NOTE: grid_fdda is 0 for domain      2, setting gfdda interval and ending time to 0 for that domain.
 --- NOTE: both grid_sfdda and pxlsm_soil_nudge are 0 for domain      2, setting sgfdda interval and ending time to 0 for that domain.
 --- NOTE: obs_nudge_opt is 0 for domain      2, setting obs nudging interval and ending time to 0 for that domain.
 --- NOTE: grid_fdda is 0 for domain      3, setting gfdda interval and ending time to 0 for that domain.
 --- NOTE: both grid_sfdda and pxlsm_soil_nudge are 0 for domain      3, setting sgfdda interval and ending time to 0 for that domain.
 --- NOTE: obs_nudge_opt is 0 for domain      3, setting obs nudging interval and ending time to 0 for that domain.
 --- NOTE: grid_fdda is 0 for domain      4, setting gfdda interval and ending time to 0 for that domain.
 --- NOTE: both grid_sfdda and pxlsm_soil_nudge are 0 for domain      4, setting sgfdda interval and ending time to 0 for that domain.
 --- NOTE: obs_nudge_opt is 0 for domain      4, setting obs nudging interval and ending time to 0 for that domain.
 bl_pbl_physics /= 4, implies mfshconv must be 0, resetting
 --- NOTE: num_soil_layers has been set to      4
 WRF V3.6 MODEL
  *************************************
  Parent domain
  ids,ide,jds,jde  1 271 1 181
  ims,ime,jms,jme  -4 34 -4 19
  ips,ipe,jps,jpe  1 27 1 12
  *************************************
 DYNAMICS OPTION: Eulerian Mass Coordinate
    alloc_space_field: domain  1 ,  95252168  bytes allocated
   med_initialdata_input: calling input_input
Timing for processing wrfinput file (stream 0) for domain        1:    3.84002 elapsed seconds
 INPUT LandUse = "USGS"
  LANDUSE TYPE = "USGS" FOUND 33  CATEGORIES 2  SEASONS WATER CATEGORY =  16  SNOW CATEGORY =  24
 INITIALIZE THREE Noah LSM RELATED TABLES
  LANDUSE TYPE = USGS FOUND 27  CATEGORIES
  INPUT SOIL TEXTURE CLASSIFICATION = STAS
  SOIL TEXTURE CLASSIFICATION = STAS FOUND 19  CATEGORIES
 *********************************************************************
 *             PROGRAM:WRF/CHEM V3.6 MODEL
 *                                                                   *
 *    PLEASE REPORT ANY BUGS TO WRF/CHEM HELP at                     *
 *                                                                   *
 *              wrfchemhelp.gsd@noaa.gov                             *
 *                                                                   *
 *********************************************************************
 WARNING: dust option 1 currently works only with the GOCART aerosol option.
 WARNING: sea salt option 1 currently works only with the GOCART aerosol option.
  *************************************
  Nesting domain
  ids,ide,jds,jde  1 361 1 253
  ims,ime,jms,jme  -4 48 -4 27
  ips,ipe,jps,jpe  1 36 1 16
  INTERMEDIATE domain
  ids,ide,jds,jde  74 199 47 136
  ims,ime,jms,jme  69 97 42 63
  ips,ipe,jps,jpe  72 87 45 53
  *************************************
 d01 2016-02-05_12:00:00  alloc_space_field: domain  2 ,  168236264  bytes allocated
 d01 2016-02-05_12:00:00  alloc_space_field: domain  2 ,  8036248  bytes allocated
 d01 2016-02-05_12:00:00 *** Initializing nest domain # 2 from an input file. ***
 d01 2016-02-05_12:00:00 med_initialdata_input: calling input_input
Timing for processing wrfinput file (stream 0) for domain        2:    6.75638 elapsed seconds
 INPUT LandUse = "USGS"
  LANDUSE TYPE = "USGS" FOUND 33  CATEGORIES 2  SEASONS WATER CATEGORY =  16  SNOW CATEGORY =  24
 INITIALIZE THREE Noah LSM RELATED TABLES
  LANDUSE TYPE = USGS FOUND 27  CATEGORIES
  INPUT SOIL TEXTURE CLASSIFICATION = STAS
  SOIL TEXTURE CLASSIFICATION = STAS FOUND 19  CATEGORIES
 *********************************************************************
 *             PROGRAM:WRF/CHEM V3.6 MODEL
 *                                                                   *
 *    PLEASE REPORT ANY BUGS TO WRF/CHEM HELP at                     *
 *                                                                   *
 *              wrfchemhelp.gsd@noaa.gov                             *
 *                                                                   *
 *********************************************************************
 WARNING: dust option 1 currently works only with the GOCART aerosol option.
 WARNING: sea salt option 1 currently works only with the GOCART aerosol option.
 INPUT LandUse = "USGS"
  LANDUSE TYPE = "USGS" FOUND 33  CATEGORIES 2  SEASONS WATER CATEGORY =  16  SNOW CATEGORY =  24
 INITIALIZE THREE Noah LSM RELATED TABLES
  LANDUSE TYPE = USGS FOUND 27  CATEGORIES
  INPUT SOIL TEXTURE CLASSIFICATION = STAS
  SOIL TEXTURE CLASSIFICATION = STAS FOUND 19  CATEGORIES
 *********************************************************************
 *             PROGRAM:WRF/CHEM V3.6 MODEL
 *                                                                   *
 *    PLEASE REPORT ANY BUGS TO WRF/CHEM HELP at                     *
 *                                                                   *
 *              wrfchemhelp.gsd@noaa.gov                             *
 *                                                                   *
 *********************************************************************
 WARNING: dust option 1 currently works only with the GOCART aerosol option.
 WARNING: sea salt option 1 currently works only with the GOCART aerosol option.
 INPUT LandUse = "USGS"
  LANDUSE TYPE = "USGS" FOUND 33  CATEGORIES 2  SEASONS WATER CATEGORY =  16  SNOW CATEGORY =  24
 INITIALIZE THREE Noah LSM RELATED TABLES
  LANDUSE TYPE = USGS FOUND 27  CATEGORIES
  INPUT SOIL TEXTURE CLASSIFICATION = STAS
  SOIL TEXTURE CLASSIFICATION = STAS FOUND 19  CATEGORIES
 *********************************************************************
 *             PROGRAM:WRF/CHEM V3.6 MODEL
 *                                                                   *
 *    PLEASE REPORT ANY BUGS TO WRF/CHEM HELP at                     *
 *                                                                   *
 *              wrfchemhelp.gsd@noaa.gov                             *
 *                                                                   *
 *********************************************************************
 WARNING: dust option 1 currently works only with the GOCART aerosol option.
 WARNING: sea salt option 1 currently works only with the GOCART aerosol option.
Timing for Writing wrfout_d01_2016-02-05_12:00:00 for domain        1:    1.39798 elapsed seconds
  mediation_integrate: med_read_wrf_chem_emissions: Open file wrfchemi_12z_d01
  HOURLY EMISSIONS UPDATE TIME         .0        .0
 mediation_integrate: med_read_wrf_chem_emissions: Read emissions for time 2016-02-05_12:00:00
 **WARNING** Time in input file not being checked **WARNING**
Timing for processing lateral boundary for domain        1:    3.22753 elapsed seconds
  Tile Strategy is not specified. Assuming 1D-Y
 WRF TILE   1 IS      1 IE     27 JS      1 JE     12
 WRF NUMBER OF TILES =   1
  photolysis_driver: called for domain  1
  *************************************
  Nesting domain
  ids,ide,jds,jde  1 307 1 241
  ims,ime,jms,jme  -4 42 -4 27
  ips,ipe,jps,jpe  1 31 1 15
  INTERMEDIATE domain
  ids,ide,jds,jde  124 231 35 120
  ims,ime,jms,jme  119 145 30 51
  ips,ipe,jps,jpe  122 135 33 41
  *************************************
 d02 2016-02-05_12:00:00  alloc_space_field: domain  3 ,  149693108  bytes allocated
 d02 2016-02-05_12:00:00  alloc_space_field: domain  3 ,  7482024  bytes allocated
 d02 2016-02-05_12:00:00 *** Initializing nest domain # 3 from an input file. ***
 d02 2016-02-05_12:00:00 med_initialdata_input: calling input_input
Timing for processing wrfinput file (stream 0) for domain        3:    5.41099 elapsed seconds
 INPUT LandUse = "USGS"
  LANDUSE TYPE = "USGS" FOUND 33  CATEGORIES 2  SEASONS WATER CATEGORY =  16  SNOW CATEGORY =  24
 INITIALIZE THREE Noah LSM RELATED TABLES
  LANDUSE TYPE = USGS FOUND 27  CATEGORIES
  INPUT SOIL TEXTURE CLASSIFICATION = STAS
  SOIL TEXTURE CLASSIFICATION = STAS FOUND 19  CATEGORIES
 *********************************************************************
 *             PROGRAM:WRF/CHEM V3.6 MODEL
 *                                                                   *
 *    PLEASE REPORT ANY BUGS TO WRF/CHEM HELP at                     *
 *                                                                   *
 *              wrfchemhelp.gsd@noaa.gov                             *
 *                                                                   *
 *********************************************************************
 WARNING: dust option 1 currently works only with the GOCART aerosol option.
 WARNING: sea salt option 1 currently works only with the GOCART aerosol option.
 INPUT LandUse = "USGS"
  LANDUSE TYPE = "USGS" FOUND 33  CATEGORIES 2  SEASONS WATER CATEGORY =  16  SNOW CATEGORY =  24
 INITIALIZE THREE Noah LSM RELATED TABLES
  LANDUSE TYPE = USGS FOUND 27  CATEGORIES
  INPUT SOIL TEXTURE CLASSIFICATION = STAS
  SOIL TEXTURE CLASSIFICATION = STAS FOUND 19  CATEGORIES
 *********************************************************************
 *             PROGRAM:WRF/CHEM V3.6 MODEL
 *                                                                   *
 *    PLEASE REPORT ANY BUGS TO WRF/CHEM HELP at                     *
 *                                                                   *
 *              wrfchemhelp.gsd@noaa.gov                             *
 *                                                                   *
 *********************************************************************
 WARNING: dust option 1 currently works only with the GOCART aerosol option.
 WARNING: sea salt option 1 currently works only with the GOCART aerosol option.
 INPUT LandUse = "USGS"
  LANDUSE TYPE = "USGS" FOUND 33  CATEGORIES 2  SEASONS WATER CATEGORY =  16  SNOW CATEGORY =  24
 INITIALIZE THREE Noah LSM RELATED TABLES
  LANDUSE TYPE = USGS FOUND 27  CATEGORIES
  INPUT SOIL TEXTURE CLASSIFICATION = STAS
  SOIL TEXTURE CLASSIFICATION = STAS FOUND 19  CATEGORIES
 *********************************************************************
 *             PROGRAM:WRF/CHEM V3.6 MODEL
 *                                                                   *
 *    PLEASE REPORT ANY BUGS TO WRF/CHEM HELP at                     *
 *                                                                   *
 *              wrfchemhelp.gsd@noaa.gov                             *
 *                                                                   *
 *********************************************************************
 WARNING: dust option 1 currently works only with the GOCART aerosol option.
 WARNING: sea salt option 1 currently works only with the GOCART aerosol option.
  *************************************
  Nesting domain
  ids,ide,jds,jde  1 217 1 388
  ims,ime,jms,jme  -4 33 -4 36
  ips,ipe,jps,jpe  1 22 1 25
  INTERMEDIATE domain
  ids,ide,jds,jde  225 302 83 217
  ims,ime,jms,jme  220 243 78 102
  ips,ipe,jps,jpe  223 233 81 92
  *************************************
 d02 2016-02-05_12:00:00  alloc_space_field: domain  4 ,  154732412  bytes allocated
 d02 2016-02-05_12:00:00 *** Initializing nest domain # 4 from an input file. ***
 d02 2016-02-05_12:00:00 med_initialdata_input: calling input_input
Timing for processing wrfinput file (stream 0) for domain        4:    6.68137 elapsed seconds
 INPUT LandUse = "USGS"
  LANDUSE TYPE = "USGS" FOUND 33  CATEGORIES 2  SEASONS WATER CATEGORY =  16  SNOW CATEGORY =  24
 INITIALIZE THREE Noah LSM RELATED TABLES
  LANDUSE TYPE = USGS FOUND 27  CATEGORIES
  INPUT SOIL TEXTURE CLASSIFICATION = STAS
  SOIL TEXTURE CLASSIFICATION = STAS FOUND 19  CATEGORIES
 *********************************************************************
 *             PROGRAM:WRF/CHEM V3.6 MODEL
 *                                                                   *
 *    PLEASE REPORT ANY BUGS TO WRF/CHEM HELP at                     *
 *                                                                   *
 *              wrfchemhelp.gsd@noaa.gov                             *
 *                                                                   *
 *********************************************************************
 WARNING: dust option 1 currently works only with the GOCART aerosol option.
 WARNING: sea salt option 1 currently works only with the GOCART aerosol option.
 INPUT LandUse = "USGS"
  LANDUSE TYPE = "USGS" FOUND 33  CATEGORIES 2  SEASONS WATER CATEGORY =  16  SNOW CATEGORY =  24
 INITIALIZE THREE Noah LSM RELATED TABLES
  LANDUSE TYPE = USGS FOUND 27  CATEGORIES
  INPUT SOIL TEXTURE CLASSIFICATION = STAS
  SOIL TEXTURE CLASSIFICATION = STAS FOUND 19  CATEGORIES
 *********************************************************************
 *             PROGRAM:WRF/CHEM V3.6 MODEL
 *                                                                   *
 *    PLEASE REPORT ANY BUGS TO WRF/CHEM HELP at                     *
 *                                                                   *
 *              wrfchemhelp.gsd@noaa.gov                             *
 *                                                                   *
 *********************************************************************
 WARNING: dust option 1 currently works only with the GOCART aerosol option.
 WARNING: sea salt option 1 currently works only with the GOCART aerosol option.
 INPUT LandUse = "USGS"
  LANDUSE TYPE = "USGS" FOUND 33  CATEGORIES 2  SEASONS WATER CATEGORY =  16  SNOW CATEGORY =  24
 INITIALIZE THREE Noah LSM RELATED TABLES
  LANDUSE TYPE = USGS FOUND 27  CATEGORIES
  INPUT SOIL TEXTURE CLASSIFICATION = STAS
  SOIL TEXTURE CLASSIFICATION = STAS FOUND 19  CATEGORIES
 *********************************************************************
 *             PROGRAM:WRF/CHEM V3.6 MODEL
 *                                                                   *
 *    PLEASE REPORT ANY BUGS TO WRF/CHEM HELP at                     *
 *                                                                   *
 *              wrfchemhelp.gsd@noaa.gov                             *
 *                                                                   *
 *********************************************************************
 WARNING: dust option 1 currently works only with the GOCART aerosol option.
 WARNING: sea salt option 1 currently works only with the GOCART aerosol option.
Timing for Writing wrfout_d02_2016-02-05_12:00:00 for domain        2:    2.14774 elapsed seconds
  mediation_integrate: med_read_wrf_chem_emissions: Open file wrfchemi_12z_d02
  HOURLY EMISSIONS UPDATE TIME         .0        .0
 mediation_integrate: med_read_wrf_chem_emissions: Read emissions for time 2016-02-05_12:00:00
 **WARNING** Time in input file not being checked **WARNING**
  Tile Strategy is not specified. Assuming 1D-Y
 WRF TILE   1 IS      1 IE     36 JS      1 JE     16
 WRF NUMBER OF TILES =   1
  photolysis_driver: called for domain  2
Timing for Writing wrfout_d03_2016-02-05_12:00:00 for domain        3:    1.79330 elapsed seconds
  mediation_integrate: med_read_wrf_chem_emissions: Open file wrfchemi_12z_d03
  HOURLY EMISSIONS UPDATE TIME         .0        .0
 mediation_integrate: med_read_wrf_chem_emissions: Read emissions for time 2016-02-05_12:00:00
 **WARNING** Time in input file not being checked **WARNING**
  Tile Strategy is not specified. Assuming 1D-Y
 WRF TILE   1 IS      1 IE     31 JS      1 JE     15
 WRF NUMBER OF TILES =   1
  photolysis_driver: called for domain  3
Timing for main: time 2016-02-05_12:00:13 on domain   3:    4.74573 elapsed seconds
Timing for main: time 2016-02-05_12:00:26 on domain   3:     .14871 elapsed seconds
Timing for main: time 2016-02-05_12:00:40 on domain   3:     .18014 elapsed seconds
Timing for Writing wrfout_d04_2016-02-05_12:00:00 for domain        4:    1.93587 elapsed seconds
  mediation_integrate: med_read_wrf_chem_emissions: Open file wrfchemi_12z_d04
  HOURLY EMISSIONS UPDATE TIME         .0        .0
 mediation_integrate: med_read_wrf_chem_emissions: Read emissions for time 2016-02-05_12:00:00
 **WARNING** Time in input file not being checked **WARNING**
  Tile Strategy is not specified. Assuming 1D-Y
 WRF TILE   1 IS      1 IE     22 JS      1 JE     25
 WRF NUMBER OF TILES =   1
  photolysis_driver: called for domain  4
Timing for main: time 2016-02-05_12:00:20 on domain   4:    5.41626 elapsed seconds
Timing for main: time 2016-02-05_12:00:40 on domain   4:     .24065 elapsed seconds
Timing for main: time 2016-02-05_12:00:40 on domain   2:   31.69483 elapsed seconds
Timing for main: time 2016-02-05_12:00:53 on domain   3:     .20803 elapsed seconds
Timing for main: time 2016-02-05_12:01:06 on domain   3:     .18989 elapsed seconds
Timing for main: time 2016-02-05_12:01:20 on domain   3:     .18468 elapsed seconds
Timing for main: time 2016-02-05_12:01:00 on domain   4:     .22350 elapsed seconds
Timing for main: time 2016-02-05_12:01:20 on domain   4:     .21827 elapsed seconds
Timing for main: time 2016-02-05_12:01:20 on domain   2:    1.68194 elapsed seconds
Timing for main: time 2016-02-05_12:01:33 on domain   3:     .20052 elapsed seconds
Timing for main: time 2016-02-05_12:01:46 on domain   3:     .19255 elapsed seconds
Timing for main: time 2016-02-05_12:02:00 on domain   3:     .18753 elapsed seconds
Timing for main: time 2016-02-05_12:01:40 on domain   4:     .23002 elapsed seconds
Timing for main: time 2016-02-05_12:02:00 on domain   4:     .21947 elapsed seconds
Timing for main: time 2016-02-05_12:02:00 on domain   2:    1.71903 elapsed seconds
Timing for main: time 2016-02-05_12:02:00 on domain   1:   51.36877 elapsed seconds
Timing for main: time 2016-02-05_12:02:13 on domain   3:     .20761 elapsed seconds
Timing for main: time 2016-02-05_12:02:26 on domain   3:     .19117 elapsed seconds
Timing for main: time 2016-02-05_12:02:40 on domain   3:     .18861 elapsed seconds
Timing for main: time 2016-02-05_12:02:20 on domain   4:     .22014 elapsed seconds
Timing for main: time 2016-02-05_12:02:40 on domain   4:     .21222 elapsed seconds
Timing for main: time 2016-02-05_12:02:40 on domain   2:    1.71203 elapsed seconds
Timing for main: time 2016-02-05_12:02:53 on domain   3:     .20238 elapsed seconds
Timing for main: time 2016-02-05_12:03:06 on domain   3:     .18241 elapsed seconds
Timing for main: time 2016-02-05_12:03:20 on domain   3:     .18889 elapsed seconds
Timing for main: time 2016-02-05_12:03:00 on domain   4:     .21979 elapsed seconds
Timing for main: time 2016-02-05_12:03:20 on domain   4:     .21537 elapsed seconds
Timing for main: time 2016-02-05_12:03:20 on domain   2:    1.69994 elapsed seconds
Timing for main: time 2016-02-05_12:03:33 on domain   3:     .19564 elapsed seconds
Timing for main: time 2016-02-05_12:03:46 on domain   3:     .18319 elapsed seconds
Timing for main: time 2016-02-05_12:04:00 on domain   3:     .18124 elapsed seconds
Timing for main: time 2016-02-05_12:03:40 on domain   4:     .21665 elapsed seconds
Timing for main: time 2016-02-05_12:04:00 on domain   4:     .21231 elapsed seconds
Timing for main: time 2016-02-05_12:04:00 on domain   2:    1.67478 elapsed seconds
Timing for main: time 2016-02-05_12:04:00 on domain   1:    5.42594 elapsed seconds
Timing for main: time 2016-02-05_12:04:13 on domain   3:     .19334 elapsed seconds
Timing for main: time 2016-02-05_12:04:26 on domain   3:     .18200 elapsed seconds
Timing for main: time 2016-02-05_12:04:40 on domain   3:     .18740 elapsed seconds
Timing for main: time 2016-02-05_12:04:20 on domain   4:     .21628 elapsed seconds
Timing for main: time 2016-02-05_12:04:40 on domain   4:     .21241 elapsed seconds
Timing for main: time 2016-02-05_12:04:40 on domain   2:    1.72489 elapsed seconds
Timing for main: time 2016-02-05_12:04:53 on domain   3:     .19315 elapsed seconds
Timing for main: time 2016-02-05_12:05:06 on domain   3:     .18674 elapsed seconds
Timing for main: time 2016-02-05_12:05:20 on domain   3:     .17976 elapsed seconds
Timing for main: time 2016-02-05_12:05:00 on domain   4:     .22633 elapsed seconds
Timing for main: time 2016-02-05_12:05:20 on domain   4:     .21240 elapsed seconds
Timing for main: time 2016-02-05_12:05:20 on domain   2:    1.68932 elapsed seconds
Timing for main: time 2016-02-05_12:05:33 on domain   3:     .19330 elapsed seconds
Timing for main: time 2016-02-05_12:05:46 on domain   3:     .17965 elapsed seconds
Timing for main: time 2016-02-05_12:06:00 on domain   3:     .17922 elapsed seconds
Timing for main: time 2016-02-05_12:05:40 on domain   4:     .21676 elapsed seconds
Timing for main: time 2016-02-05_12:06:00 on domain   4:     .21286 elapsed seconds
Timing for main: time 2016-02-05_12:06:00 on domain   2:    1.66163 elapsed seconds
Timing for main: time 2016-02-05_12:06:00 on domain   1:    5.44202 elapsed seconds
Timing for main: time 2016-02-05_12:06:13 on domain   3:     .19264 elapsed seconds
Timing for main: time 2016-02-05_12:06:26 on domain   3:     .17988 elapsed seconds
Timing for main: time 2016-02-05_12:06:40 on domain   3:     .17883 elapsed seconds
Timing for main: time 2016-02-05_12:06:20 on domain   4:     .21690 elapsed seconds
Timing for main: time 2016-02-05_12:06:40 on domain   4:     .21467 elapsed seconds
Timing for main: time 2016-02-05_12:06:40 on domain   2:    1.67057 elapsed seconds
Timing for main: time 2016-02-05_12:06:53 on domain   3:     .19674 elapsed seconds
Timing for main: time 2016-02-05_12:07:06 on domain   3:     .18286 elapsed seconds
Timing for main: time 2016-02-05_12:07:20 on domain   3:     .17960 elapsed seconds
Timing for main: time 2016-02-05_12:07:00 on domain   4:     .21681 elapsed seconds
Timing for main: time 2016-02-05_12:07:20 on domain   4:     .21264 elapsed seconds
Timing for main: time 2016-02-05_12:07:20 on domain   2:    1.66845 elapsed seconds
Timing for main: time 2016-02-05_12:07:33 on domain   3:     .19302 elapsed seconds
Timing for main: time 2016-02-05_12:07:46 on domain   3:     .17957 elapsed seconds
Timing for main: time 2016-02-05_12:08:00 on domain   3:     .19598 elapsed seconds
Timing for main: time 2016-02-05_12:07:40 on domain   4:     .21710 elapsed seconds
Timing for main: time 2016-02-05_12:08:00 on domain   4:     .21283 elapsed seconds
Timing for main: time 2016-02-05_12:08:00 on domain   2:    1.68098 elapsed seconds
Timing for main: time 2016-02-05_12:08:00 on domain   1:    5.37828 elapsed seconds
Timing for main: time 2016-02-05_12:08:13 on domain   3:     .19320 elapsed seconds
Timing for main: time 2016-02-05_12:08:26 on domain   3:     .17910 elapsed seconds
Timing for main: time 2016-02-05_12:08:40 on domain   3:     .17954 elapsed seconds
Timing for main: time 2016-02-05_12:08:20 on domain   4:     .21706 elapsed seconds
Timing for main: time 2016-02-05_12:08:40 on domain   4:     .21248 elapsed seconds
Timing for main: time 2016-02-05_12:08:40 on domain   2:    1.66914 elapsed seconds
Timing for main: time 2016-02-05_12:08:53 on domain   3:     .19311 elapsed seconds
Timing for main: time 2016-02-05_12:09:06 on domain   3:     .17930 elapsed seconds
Timing for main: time 2016-02-05_12:09:20 on domain   3:     .17943 elapsed seconds
Timing for main: time 2016-02-05_12:09:00 on domain   4:     .21710 elapsed seconds
Timing for main: time 2016-02-05_12:09:20 on domain   4:     .21287 elapsed seconds
Timing for main: time 2016-02-05_12:09:20 on domain   2:    1.66227 elapsed seconds
Timing for main: time 2016-02-05_12:09:33 on domain   3:     .19295 elapsed seconds
Timing for main: time 2016-02-05_12:09:46 on domain   3:     .17997 elapsed seconds
Timing for main: time 2016-02-05_12:10:00 on domain   3:     .18132 elapsed seconds
Timing for main: time 2016-02-05_12:09:40 on domain   4:     .21749 elapsed seconds
Timing for main: time 2016-02-05_12:10:00 on domain   4:     .22491 elapsed seconds
Timing for main: time 2016-02-05_12:10:00 on domain   2:    1.67693 elapsed seconds
Timing for main: time 2016-02-05_12:10:00 on domain   1:    5.36750 elapsed seconds
Timing for main: time 2016-02-05_12:10:13 on domain   3:     .20177 elapsed seconds
Timing for main: time 2016-02-05_12:10:26 on domain   3:     .17928 elapsed seconds
Timing for main: time 2016-02-05_12:10:40 on domain   3:     .18082 elapsed seconds
Timing for main: time 2016-02-05_12:10:20 on domain   4:     .21714 elapsed seconds
Timing for main: time 2016-02-05_12:10:40 on domain   4:     .21282 elapsed seconds
Timing for main: time 2016-02-05_12:10:40 on domain   2:    1.68895 elapsed seconds
Timing for main: time 2016-02-05_12:10:53 on domain   3:     .19304 elapsed seconds
Timing for main: time 2016-02-05_12:11:06 on domain   3:     .18404 elapsed seconds
Timing for main: time 2016-02-05_12:11:20 on domain   3:     .18085 elapsed seconds
Timing for main: time 2016-02-05_12:11:00 on domain   4:     .22053 elapsed seconds
Timing for main: time 2016-02-05_12:11:20 on domain   4:     .21380 elapsed seconds
Timing for main: time 2016-02-05_12:11:20 on domain   2:    1.67435 elapsed seconds
Timing for main: time 2016-02-05_12:11:33 on domain   3:     .19273 elapsed seconds
Timing for main: time 2016-02-05_12:11:46 on domain   3:     .18726 elapsed seconds
Timing for main: time 2016-02-05_12:12:00 on domain   3:     .18381 elapsed seconds
Timing for main: time 2016-02-05_12:11:40 on domain   4:     .21939 elapsed seconds
Timing for main: time 2016-02-05_12:12:00 on domain   4:     .21277 elapsed seconds
Timing for main: time 2016-02-05_12:12:00 on domain   2:    1.68301 elapsed seconds
Timing for main: time 2016-02-05_12:12:00 on domain   1:    5.41264 elapsed seconds
Timing for main: time 2016-02-05_12:12:13 on domain   3:     .19286 elapsed seconds
Timing for main: time 2016-02-05_12:12:26 on domain   3:     .17858 elapsed seconds
Timing for main: time 2016-02-05_12:12:40 on domain   3:     .18016 elapsed seconds
Timing for main: time 2016-02-05_12:12:20 on domain   4:     .21760 elapsed seconds
Timing for main: time 2016-02-05_12:12:40 on domain   4:     .21302 elapsed seconds
Timing for main: time 2016-02-05_12:12:40 on domain   2:    1.66994 elapsed seconds
Timing for main: time 2016-02-05_12:12:53 on domain   3:     .19317 elapsed seconds
Timing for main: time 2016-02-05_12:13:06 on domain   3:     .18548 elapsed seconds
Timing for main: time 2016-02-05_12:13:20 on domain   3:     .18000 elapsed seconds
Timing for main: time 2016-02-05_12:13:00 on domain   4:     .21752 elapsed seconds
Timing for main: time 2016-02-05_12:13:20 on domain   4:     .21307 elapsed seconds
Timing for main: time 2016-02-05_12:13:20 on domain   2:    1.67041 elapsed seconds
Timing for main: time 2016-02-05_12:13:33 on domain   3:     .19317 elapsed seconds
Timing for main: time 2016-02-05_12:13:46 on domain   3:     .17929 elapsed seconds
Timing for main: time 2016-02-05_12:14:00 on domain   3:     .18096 elapsed seconds
Timing for main: time 2016-02-05_12:13:40 on domain   4:     .21754 elapsed seconds
Timing for main: time 2016-02-05_12:14:00 on domain   4:     .21290 elapsed seconds
Timing for main: time 2016-02-05_12:14:00 on domain   2:    1.66545 elapsed seconds
Timing for main: time 2016-02-05_12:14:00 on domain   1:    5.36562 elapsed seconds
Timing for main: time 2016-02-05_12:14:13 on domain   3:     .19324 elapsed seconds
Timing for main: time 2016-02-05_12:14:26 on domain   3:     .17923 elapsed seconds
Timing for main: time 2016-02-05_12:14:40 on domain   3:     .18456 elapsed seconds
Timing for main: time 2016-02-05_12:14:20 on domain   4:     .21750 elapsed seconds
Timing for main: time 2016-02-05_12:14:40 on domain   4:     .21315 elapsed seconds
Timing for main: time 2016-02-05_12:14:40 on domain   2:    1.67380 elapsed seconds
Timing for main: time 2016-02-05_12:14:53 on domain   3:     .19319 elapsed seconds
Timing for main: time 2016-02-05_12:15:06 on domain   3:     .17904 elapsed seconds
Timing for main: time 2016-02-05_12:15:20 on domain   3:     .18759 elapsed seconds
Timing for main: time 2016-02-05_12:15:00 on domain   4:     .22646 elapsed seconds
Timing for main: time 2016-02-05_12:15:20 on domain   4:     .21443 elapsed seconds
Timing for main: time 2016-02-05_12:15:20 on domain   2:    1.68406 elapsed seconds
Timing for main: time 2016-02-05_12:15:33 on domain   3:     .19474 elapsed seconds
Timing for main: time 2016-02-05_12:15:46 on domain   3:     .17851 elapsed seconds
Timing for main: time 2016-02-05_12:16:00 on domain   3:     .17929 elapsed seconds
Timing for main: time 2016-02-05_12:15:40 on domain   4:     .21724 elapsed seconds
Timing for main: time 2016-02-05_12:16:00 on domain   4:     .21328 elapsed seconds
Timing for main: time 2016-02-05_12:16:00 on domain   2:    1.67486 elapsed seconds
Timing for main: time 2016-02-05_12:16:00 on domain   1:    5.39429 elapsed seconds
Timing for main: time 2016-02-05_12:16:13 on domain   3:     .19219 elapsed seconds
Timing for main: time 2016-02-05_12:16:26 on domain   3:     .17998 elapsed seconds
Timing for main: time 2016-02-05_12:16:40 on domain   3:     .17977 elapsed seconds
Timing for main: time 2016-02-05_12:16:20 on domain   4:     .21750 elapsed seconds
Timing for main: time 2016-02-05_12:16:40 on domain   4:     .21330 elapsed seconds
Timing for main: time 2016-02-05_12:16:40 on domain   2:    1.67167 elapsed seconds
Timing for main: time 2016-02-05_12:16:53 on domain   3:     .19274 elapsed seconds
Timing for main: time 2016-02-05_12:17:06 on domain   3:     .17968 elapsed seconds
Timing for main: time 2016-02-05_12:17:20 on domain   3:     .18034 elapsed seconds
Timing for main: time 2016-02-05_12:17:00 on domain   4:     .21676 elapsed seconds
Timing for main: time 2016-02-05_12:17:20 on domain   4:     .21410 elapsed seconds
Timing for main: time 2016-02-05_12:17:20 on domain   2:    1.66525 elapsed seconds
Timing for main: time 2016-02-05_12:17:33 on domain   3:     .19259 elapsed seconds
Timing for main: time 2016-02-05_12:17:46 on domain   3:     .18016 elapsed seconds
Timing for main: time 2016-02-05_12:18:00 on domain   3:     .17968 elapsed seconds
Timing for main: time 2016-02-05_12:17:40 on domain   4:     .21527 elapsed seconds
Timing for main: time 2016-02-05_12:18:00 on domain   4:     .21293 elapsed seconds
Timing for main: time 2016-02-05_12:18:00 on domain   2:    1.66437 elapsed seconds
Timing for main: time 2016-02-05_12:18:00 on domain   1:    5.36776 elapsed seconds
Timing for main: time 2016-02-05_12:18:13 on domain   3:     .19339 elapsed seconds
Timing for main: time 2016-02-05_12:18:26 on domain   3:     .17898 elapsed seconds
Timing for main: time 2016-02-05_12:18:40 on domain   3:     .17966 elapsed seconds
Timing for main: time 2016-02-05_12:18:20 on domain   4:     .22617 elapsed seconds
Timing for main: time 2016-02-05_12:18:40 on domain   4:     .21311 elapsed seconds
Timing for main: time 2016-02-05_12:18:40 on domain   2:    1.69565 elapsed seconds
Timing for main: time 2016-02-05_12:18:53 on domain   3:     .23841 elapsed seconds
Timing for main: time 2016-02-05_12:19:06 on domain   3:     .21809 elapsed seconds
Timing for main: time 2016-02-05_12:19:20 on domain   3:     .18061 elapsed seconds
Timing for main: time 2016-02-05_12:19:00 on domain   4:     .21710 elapsed seconds
Timing for main: time 2016-02-05_12:19:20 on domain   4:     .21344 elapsed seconds
Timing for main: time 2016-02-05_12:19:20 on domain   2:    1.74950 elapsed seconds
Timing for main: time 2016-02-05_12:19:33 on domain   3:     .19312 elapsed seconds
Timing for main: time 2016-02-05_12:19:46 on domain   3:     .17936 elapsed seconds
Timing for main: time 2016-02-05_12:20:00 on domain   3:     .17956 elapsed seconds
Timing for main: time 2016-02-05_12:19:40 on domain   4:     .21733 elapsed seconds
Timing for main: time 2016-02-05_12:20:00 on domain   4:     .22279 elapsed seconds
Timing for main: time 2016-02-05_12:20:00 on domain   2:    1.67376 elapsed seconds
Timing for main: time 2016-02-05_12:20:00 on domain   1:    5.47883 elapsed seconds
Timing for main: time 2016-02-05_12:20:13 on domain   3:     .19246 elapsed seconds
Timing for main: time 2016-02-05_12:20:26 on domain   3:     .18686 elapsed seconds
Timing for main: time 2016-02-05_12:20:40 on domain   3:     .17961 elapsed seconds
Timing for main: time 2016-02-05_12:20:20 on domain   4:     .21725 elapsed seconds
Timing for main: time 2016-02-05_12:20:40 on domain   4:     .21365 elapsed seconds
Timing for main: time 2016-02-05_12:20:40 on domain   2:    1.70075 elapsed seconds
Timing for main: time 2016-02-05_12:20:53 on domain   3:     .19291 elapsed seconds
Timing for main: time 2016-02-05_12:21:06 on domain   3:     .17894 elapsed seconds
Timing for main: time 2016-02-05_12:21:20 on domain   3:     .17956 elapsed seconds
Timing for main: time 2016-02-05_12:21:00 on domain   4:     .21722 elapsed seconds
Timing for main: time 2016-02-05_12:21:20 on domain   4:     .21321 elapsed seconds
Timing for main: time 2016-02-05_12:21:20 on domain   2:    1.67525 elapsed seconds
Timing for main: time 2016-02-05_12:21:33 on domain   3:     .19037 elapsed seconds
Timing for main: time 2016-02-05_12:21:46 on domain   3:     .18002 elapsed seconds
Timing for main: time 2016-02-05_12:22:00 on domain   3:     .17949 elapsed seconds
Timing for main: time 2016-02-05_12:21:40 on domain   4:     .21735 elapsed seconds
Timing for main: time 2016-02-05_12:22:00 on domain   4:     .21370 elapsed seconds
Timing for main: time 2016-02-05_12:22:00 on domain   2:    1.66642 elapsed seconds
Timing for main: time 2016-02-05_12:22:00 on domain   1:    5.40232 elapsed seconds
Timing for main: time 2016-02-05_12:22:13 on domain   3:     .19250 elapsed seconds
Timing for main: time 2016-02-05_12:22:26 on domain   3:     .18121 elapsed seconds
Timing for main: time 2016-02-05_12:22:40 on domain   3:     .17950 elapsed seconds
Timing for main: time 2016-02-05_12:22:20 on domain   4:     .21774 elapsed seconds
Timing for main: time 2016-02-05_12:22:40 on domain   4:     .21316 elapsed seconds
Timing for main: time 2016-02-05_12:22:40 on domain   2:    1.67260 elapsed seconds
Timing for main: time 2016-02-05_12:22:53 on domain   3:     .19349 elapsed seconds
Timing for main: time 2016-02-05_12:23:06 on domain   3:     .17885 elapsed seconds
Timing for main: time 2016-02-05_12:23:20 on domain   3:     .18100 elapsed seconds
Timing for main: time 2016-02-05_12:23:00 on domain   4:     .21731 elapsed seconds
Timing for main: time 2016-02-05_12:23:20 on domain   4:     .21324 elapsed seconds
Timing for main: time 2016-02-05_12:23:20 on domain   2:    1.66610 elapsed seconds
Timing for main: time 2016-02-05_12:23:33 on domain   3:     .19326 elapsed seconds
Timing for main: time 2016-02-05_12:23:46 on domain   3:     .17993 elapsed seconds
Timing for main: time 2016-02-05_12:24:00 on domain   3:     .17990 elapsed seconds
Timing for main: time 2016-02-05_12:23:40 on domain   4:     .21745 elapsed seconds
Timing for main: time 2016-02-05_12:24:00 on domain   4:     .27241 elapsed seconds
Timing for main: time 2016-02-05_12:24:00 on domain   2:    1.72677 elapsed seconds
Timing for main: time 2016-02-05_12:24:00 on domain   1:    5.43089 elapsed seconds
Timing for main: time 2016-02-05_12:24:13 on domain   3:     .19241 elapsed seconds
Timing for main: time 2016-02-05_12:24:26 on domain   3:     .18008 elapsed seconds
Timing for main: time 2016-02-05_12:24:40 on domain   3:     .17931 elapsed seconds
Timing for main: time 2016-02-05_12:24:20 on domain   4:     .21756 elapsed seconds
Timing for main: time 2016-02-05_12:24:40 on domain   4:     .21358 elapsed seconds
Timing for main: time 2016-02-05_12:24:40 on domain   2:    1.66591 elapsed seconds
Timing for main: time 2016-02-05_12:24:53 on domain   3:     .19322 elapsed seconds
Timing for main: time 2016-02-05_12:25:06 on domain   3:     .17931 elapsed seconds
Timing for main: time 2016-02-05_12:25:20 on domain   3:     .18006 elapsed seconds
Timing for main: time 2016-02-05_12:25:00 on domain   4:     .22433 elapsed seconds
Timing for main: time 2016-02-05_12:25:20 on domain   4:     .21319 elapsed seconds
Timing for main: time 2016-02-05_12:25:20 on domain   2:    1.67498 elapsed seconds
Timing for main: time 2016-02-05_12:25:33 on domain   3:     .20112 elapsed seconds
Timing for main: time 2016-02-05_12:25:46 on domain   3:     .17914 elapsed seconds
Timing for main: time 2016-02-05_12:26:00 on domain   3:     .17918 elapsed seconds
Timing for main: time 2016-02-05_12:25:40 on domain   4:     .21946 elapsed seconds
Timing for main: time 2016-02-05_12:26:00 on domain   4:     .21382 elapsed seconds
Timing for main: time 2016-02-05_12:26:00 on domain   2:    1.67466 elapsed seconds
Timing for main: time 2016-02-05_12:26:00 on domain   1:    5.39716 elapsed seconds
Timing for main: time 2016-02-05_12:26:13 on domain   3:     .19250 elapsed seconds
Timing for main: time 2016-02-05_12:26:26 on domain   3:     .17973 elapsed seconds
Timing for main: time 2016-02-05_12:26:40 on domain   3:     .17962 elapsed seconds
Timing for main: time 2016-02-05_12:26:20 on domain   4:     .21741 elapsed seconds
Timing for main: time 2016-02-05_12:26:40 on domain   4:     .21353 elapsed seconds
Timing for main: time 2016-02-05_12:26:40 on domain   2:    1.68160 elapsed seconds
Timing for main: time 2016-02-05_12:26:53 on domain   3:     .19310 elapsed seconds
Timing for main: time 2016-02-05_12:27:06 on domain   3:     .17937 elapsed seconds
Timing for main: time 2016-02-05_12:27:20 on domain   3:     .17923 elapsed seconds
Timing for main: time 2016-02-05_12:27:00 on domain   4:     .21729 elapsed seconds
Timing for main: time 2016-02-05_12:27:20 on domain   4:     .21332 elapsed seconds
Timing for main: time 2016-02-05_12:27:20 on domain   2:    1.66457 elapsed seconds
Timing for main: time 2016-02-05_12:27:33 on domain   3:     .19325 elapsed seconds
Timing for main: time 2016-02-05_12:27:46 on domain   3:     .17891 elapsed seconds
Timing for main: time 2016-02-05_12:28:00 on domain   3:     .18018 elapsed seconds
Timing for main: time 2016-02-05_12:27:40 on domain   4:     .21757 elapsed seconds
Timing for main: time 2016-02-05_12:28:00 on domain   4:     .21370 elapsed seconds
Timing for main: time 2016-02-05_12:28:00 on domain   2:    1.66549 elapsed seconds
Timing for main: time 2016-02-05_12:28:00 on domain   1:    5.37042 elapsed seconds
  photolysis_driver: called for domain  1
Timing for main: time 2016-02-05_12:28:13 on domain   3:     .19529 elapsed seconds
Timing for main: time 2016-02-05_12:28:26 on domain   3:     .17782 elapsed seconds
Timing for main: time 2016-02-05_12:28:40 on domain   3:     .18009 elapsed seconds
Timing for main: time 2016-02-05_12:28:20 on domain   4:     .21743 elapsed seconds
Timing for main: time 2016-02-05_12:28:40 on domain   4:     .21333 elapsed seconds
Timing for main: time 2016-02-05_12:28:40 on domain   2:    1.67205 elapsed seconds
Timing for main: time 2016-02-05_12:28:53 on domain   3:     .19380 elapsed seconds
Timing for main: time 2016-02-05_12:29:06 on domain   3:     .18024 elapsed seconds
Timing for main: time 2016-02-05_12:29:20 on domain   3:     .17945 elapsed seconds
Timing for main: time 2016-02-05_12:29:00 on domain   4:     .21732 elapsed seconds
Timing for main: time 2016-02-05_12:29:20 on domain   4:     .21370 elapsed seconds
Timing for main: time 2016-02-05_12:29:20 on domain   2:    1.66695 elapsed seconds
  photolysis_driver: called for domain  2
Timing for main: time 2016-02-05_12:29:33 on domain   3:     .19256 elapsed seconds
Timing for main: time 2016-02-05_12:29:46 on domain   3:     .18167 elapsed seconds
  photolysis_driver: called for domain  3
Timing for main: time 2016-02-05_12:30:00 on domain   3:    1.04381 elapsed seconds
Timing for main: time 2016-02-05_12:29:40 on domain   4:     .21713 elapsed seconds
  photolysis_driver: called for domain  4
Timing for main: time 2016-02-05_12:30:00 on domain   4:    1.23750 elapsed seconds
Timing for main: time 2016-02-05_12:30:00 on domain   2:    4.64514 elapsed seconds
Timing for main: time 2016-02-05_12:30:00 on domain   1:    9.03363 elapsed seconds
Timing for main: time 2016-02-05_12:30:13 on domain   3:     .36444 elapsed seconds
Timing for main: time 2016-02-05_12:30:26 on domain   3:     .17900 elapsed seconds
Timing for main: time 2016-02-05_12:30:40 on domain   3:     .18642 elapsed seconds
Timing for main: time 2016-02-05_12:30:20 on domain   4:     .41699 elapsed seconds
Timing for main: time 2016-02-05_12:30:40 on domain   4:     .21308 elapsed seconds
Timing for main: time 2016-02-05_12:30:40 on domain   2:    2.26067 elapsed seconds
Timing for main: time 2016-02-05_12:30:53 on domain   3:     .19140 elapsed seconds
Timing for main: time 2016-02-05_12:31:06 on domain   3:     .17945 elapsed seconds
Timing for main: time 2016-02-05_12:31:20 on domain   3:     .17853 elapsed seconds
Timing for main: time 2016-02-05_12:31:00 on domain   4:     .21595 elapsed seconds
Timing for main: time 2016-02-05_12:31:20 on domain   4:     .21232 elapsed seconds
Timing for main: time 2016-02-05_12:31:20 on domain   2:    1.65858 elapsed seconds
Timing for main: time 2016-02-05_12:31:33 on domain   3:     .19189 elapsed seconds
Timing for main: time 2016-02-05_12:31:46 on domain   3:     .17931 elapsed seconds
Timing for main: time 2016-02-05_12:32:00 on domain   3:     .17898 elapsed seconds
Timing for main: time 2016-02-05_12:31:40 on domain   4:     .21894 elapsed seconds
Timing for main: time 2016-02-05_12:32:00 on domain   4:     .21323 elapsed seconds
Timing for main: time 2016-02-05_12:32:00 on domain   2:    1.67377 elapsed seconds
Timing for main: time 2016-02-05_12:32:00 on domain   1:    6.11564 elapsed seconds
Timing for main: time 2016-02-05_12:32:13 on domain   3:     .19147 elapsed seconds
Timing for main: time 2016-02-05_12:32:26 on domain   3:     .18464 elapsed seconds
Timing for main: time 2016-02-05_12:32:40 on domain   3:     .17991 elapsed seconds
Timing for main: time 2016-02-05_12:32:20 on domain   4:     .21597 elapsed seconds
Timing for main: time 2016-02-05_12:32:40 on domain   4:     .21236 elapsed seconds
Timing for main: time 2016-02-05_12:32:40 on domain   2:    1.67121 elapsed seconds
Timing for main: time 2016-02-05_12:32:53 on domain   3:     .19117 elapsed seconds
Timing for main: time 2016-02-05_12:33:06 on domain   3:     .17814 elapsed seconds
Timing for main: time 2016-02-05_12:33:20 on domain   3:     .17873 elapsed seconds
Timing for main: time 2016-02-05_12:33:00 on domain   4:     .21591 elapsed seconds
Timing for main: time 2016-02-05_12:33:20 on domain   4:     .21247 elapsed seconds
Timing for main: time 2016-02-05_12:33:20 on domain   2:    1.65822 elapsed seconds
Timing for main: time 2016-02-05_12:33:33 on domain   3:     .19084 elapsed seconds
Timing for main: time 2016-02-05_12:33:46 on domain   3:     .17948 elapsed seconds
Timing for main: time 2016-02-05_12:34:00 on domain   3:     .17874 elapsed seconds
Timing for main: time 2016-02-05_12:33:40 on domain   4:     .21585 elapsed seconds
Timing for main: time 2016-02-05_12:34:00 on domain   4:     .21233 elapsed seconds
Timing for main: time 2016-02-05_12:34:00 on domain   2:    1.65907 elapsed seconds
Timing for main: time 2016-02-05_12:34:00 on domain   1:    5.34879 elapsed seconds
Timing for main: time 2016-02-05_12:34:13 on domain   3:     .19231 elapsed seconds
Timing for main: time 2016-02-05_12:34:26 on domain   3:     .17915 elapsed seconds
Timing for main: time 2016-02-05_12:34:40 on domain   3:     .18041 elapsed seconds
Timing for main: time 2016-02-05_12:34:20 on domain   4:     .21611 elapsed seconds
Timing for main: time 2016-02-05_12:34:40 on domain   4:     .21267 elapsed seconds
Timing for main: time 2016-02-05_12:34:40 on domain   2:    1.66700 elapsed seconds
Timing for main: time 2016-02-05_12:34:53 on domain   3:     .19191 elapsed seconds
Timing for main: time 2016-02-05_12:35:06 on domain   3:     .17856 elapsed seconds
Timing for main: time 2016-02-05_12:35:20 on domain   3:     .18347 elapsed seconds
Timing for main: time 2016-02-05_12:35:00 on domain   4:     .22558 elapsed seconds
Timing for main: time 2016-02-05_12:35:20 on domain   4:     .21233 elapsed seconds
Timing for main: time 2016-02-05_12:35:20 on domain   2:    1.67342 elapsed seconds
Timing for main: time 2016-02-05_12:35:33 on domain   3:     .19114 elapsed seconds
Timing for main: time 2016-02-05_12:35:46 on domain   3:     .18682 elapsed seconds
Timing for main: time 2016-02-05_12:36:00 on domain   3:     .17791 elapsed seconds
Timing for main: time 2016-02-05_12:35:40 on domain   4:     .21605 elapsed seconds
Timing for main: time 2016-02-05_12:36:00 on domain   4:     .21271 elapsed seconds
Timing for main: time 2016-02-05_12:36:00 on domain   2:    1.66786 elapsed seconds
Timing for main: time 2016-02-05_12:36:00 on domain   1:    5.37408 elapsed seconds
Timing for main: time 2016-02-05_12:36:13 on domain   3:     .19117 elapsed seconds
Timing for main: time 2016-02-05_12:36:26 on domain   3:     .17809 elapsed seconds
Timing for main: time 2016-02-05_12:36:40 on domain   3:     .17834 elapsed seconds
Timing for main: time 2016-02-05_12:36:20 on domain   4:     .21904 elapsed seconds
Timing for main: time 2016-02-05_12:36:40 on domain   4:     .21223 elapsed seconds
Timing for main: time 2016-02-05_12:36:40 on domain   2:    1.66793 elapsed seconds
Timing for main: time 2016-02-05_12:36:53 on domain   3:     .19328 elapsed seconds
Timing for main: time 2016-02-05_12:37:06 on domain   3:     .17719 elapsed seconds
Timing for main: time 2016-02-05_12:37:20 on domain   3:     .17800 elapsed seconds
Timing for main: time 2016-02-05_12:37:00 on domain   4:     .21648 elapsed seconds
Timing for main: time 2016-02-05_12:37:20 on domain   4:     .21220 elapsed seconds
Timing for main: time 2016-02-05_12:37:20 on domain   2:    1.66968 elapsed seconds
Timing for main: time 2016-02-05_12:37:33 on domain   3:     .19109 elapsed seconds
Timing for main: time 2016-02-05_12:37:46 on domain   3:     .17890 elapsed seconds
Timing for main: time 2016-02-05_12:38:00 on domain   3:     .17881 elapsed seconds
Timing for main: time 2016-02-05_12:37:40 on domain   4:     .21613 elapsed seconds
Timing for main: time 2016-02-05_12:38:00 on domain   4:     .21240 elapsed seconds
Timing for main: time 2016-02-05_12:38:00 on domain   2:    1.65921 elapsed seconds
Timing for main: time 2016-02-05_12:38:00 on domain   1:    5.35694 elapsed seconds
Timing for main: time 2016-02-05_12:38:13 on domain   3:     .19162 elapsed seconds
Timing for main: time 2016-02-05_12:38:26 on domain   3:     .17857 elapsed seconds
Timing for main: time 2016-02-05_12:38:40 on domain   3:     .17910 elapsed seconds
Timing for main: time 2016-02-05_12:38:20 on domain   4:     .21603 elapsed seconds
Timing for main: time 2016-02-05_12:38:40 on domain   4:     .21244 elapsed seconds
Timing for main: time 2016-02-05_12:38:40 on domain   2:    1.66550 elapsed seconds
Timing for main: time 2016-02-05_12:38:53 on domain   3:     .19160 elapsed seconds
Timing for main: time 2016-02-05_12:39:06 on domain   3:     .17825 elapsed seconds
Timing for main: time 2016-02-05_12:39:20 on domain   3:     .21608 elapsed seconds
Timing for main: time 2016-02-05_12:39:00 on domain   4:     .21622 elapsed seconds
Timing for main: time 2016-02-05_12:39:20 on domain   4:     .21242 elapsed seconds
Timing for main: time 2016-02-05_12:39:20 on domain   2:    1.73507 elapsed seconds
Timing for main: time 2016-02-05_12:39:33 on domain   3:     .19146 elapsed seconds
Timing for main: time 2016-02-05_12:39:46 on domain   3:     .17788 elapsed seconds
Timing for main: time 2016-02-05_12:40:00 on domain   3:     .17837 elapsed seconds
Timing for main: time 2016-02-05_12:39:40 on domain   4:     .21603 elapsed seconds
Timing for main: time 2016-02-05_12:40:00 on domain   4:     .22424 elapsed seconds
Timing for main: time 2016-02-05_12:40:00 on domain   2:    1.67053 elapsed seconds
Timing for main: time 2016-02-05_12:40:00 on domain   1:    5.43119 elapsed seconds
Timing for main: time 2016-02-05_12:40:13 on domain   3:     .19215 elapsed seconds
Timing for main: time 2016-02-05_12:40:26 on domain   3:     .17823 elapsed seconds
Timing for main: time 2016-02-05_12:40:40 on domain   3:     .17884 elapsed seconds
Timing for main: time 2016-02-05_12:40:20 on domain   4:     .21612 elapsed seconds
Timing for main: time 2016-02-05_12:40:40 on domain   4:     .21237 elapsed seconds
Timing for main: time 2016-02-05_12:40:40 on domain   2:    1.66644 elapsed seconds
Timing for main: time 2016-02-05_12:40:53 on domain   3:     .19999 elapsed seconds
Timing for main: time 2016-02-05_12:41:06 on domain   3:     .17889 elapsed seconds
Timing for main: time 2016-02-05_12:41:20 on domain   3:     .17898 elapsed seconds
Timing for main: time 2016-02-05_12:41:00 on domain   4:     .21642 elapsed seconds
Timing for main: time 2016-02-05_12:41:20 on domain   4:     .21269 elapsed seconds
Timing for main: time 2016-02-05_12:41:20 on domain   2:    1.66879 elapsed seconds
Timing for main: time 2016-02-05_12:41:33 on domain   3:     .19175 elapsed seconds
Timing for main: time 2016-02-05_12:41:46 on domain   3:     .17863 elapsed seconds
Timing for main: time 2016-02-05_12:42:00 on domain   3:     .17826 elapsed seconds
Timing for main: time 2016-02-05_12:41:40 on domain   4:     .26485 elapsed seconds
Timing for main: time 2016-02-05_12:42:00 on domain   4:     .21153 elapsed seconds
Timing for main: time 2016-02-05_12:42:00 on domain   2:    1.70836 elapsed seconds
Timing for main: time 2016-02-05_12:42:00 on domain   1:    5.40908 elapsed seconds
Timing for main: time 2016-02-05_12:42:13 on domain   3:     .19190 elapsed seconds
Timing for main: time 2016-02-05_12:42:26 on domain   3:     .17847 elapsed seconds
Timing for main: time 2016-02-05_12:42:40 on domain   3:     .17869 elapsed seconds
Timing for main: time 2016-02-05_12:42:20 on domain   4:     .21652 elapsed seconds
Timing for main: time 2016-02-05_12:42:40 on domain   4:     .21238 elapsed seconds
Timing for main: time 2016-02-05_12:42:40 on domain   2:    1.67721 elapsed seconds
Timing for main: time 2016-02-05_12:42:53 on domain   3:     .19128 elapsed seconds
Timing for main: time 2016-02-05_12:43:06 on domain   3:     .18169 elapsed seconds
Timing for main: time 2016-02-05_12:43:20 on domain   3:     .17941 elapsed seconds
Timing for main: time 2016-02-05_12:43:00 on domain   4:     .21617 elapsed seconds
Timing for main: time 2016-02-05_12:43:20 on domain   4:     .21416 elapsed seconds
Timing for main: time 2016-02-05_12:43:20 on domain   2:    1.66964 elapsed seconds
Timing for main: time 2016-02-05_12:43:33 on domain   3:     .19104 elapsed seconds
Timing for main: time 2016-02-05_12:43:46 on domain   3:     .18047 elapsed seconds
Timing for main: time 2016-02-05_12:44:00 on domain   3:     .17868 elapsed seconds
Timing for main: time 2016-02-05_12:43:40 on domain   4:     .21618 elapsed seconds
Timing for main: time 2016-02-05_12:44:00 on domain   4:     .21243 elapsed seconds
Timing for main: time 2016-02-05_12:44:00 on domain   2:    1.66241 elapsed seconds
Timing for main: time 2016-02-05_12:44:00 on domain   1:    5.36803 elapsed seconds
Timing for main: time 2016-02-05_12:44:13 on domain   3:     .19159 elapsed seconds
Timing for main: time 2016-02-05_12:44:26 on domain   3:     .17837 elapsed seconds
Timing for main: time 2016-02-05_12:44:40 on domain   3:     .17866 elapsed seconds
Timing for main: time 2016-02-05_12:44:20 on domain   4:     .21595 elapsed seconds
Timing for main: time 2016-02-05_12:44:40 on domain   4:     .21288 elapsed seconds
Timing for main: time 2016-02-05_12:44:40 on domain   2:    1.66644 elapsed seconds
Timing for main: time 2016-02-05_12:44:53 on domain   3:     .19148 elapsed seconds
Timing for main: time 2016-02-05_12:45:06 on domain   3:     .17882 elapsed seconds
Timing for main: time 2016-02-05_12:45:20 on domain   3:     .17865 elapsed seconds
Timing for main: time 2016-02-05_12:45:00 on domain   4:     .27422 elapsed seconds
Timing for main: time 2016-02-05_12:45:20 on domain   4:     .21092 elapsed seconds
Timing for main: time 2016-02-05_12:45:20 on domain   2:    1.72215 elapsed seconds
Timing for main: time 2016-02-05_12:45:33 on domain   3:     .19157 elapsed seconds
Timing for main: time 2016-02-05_12:45:46 on domain   3:     .17862 elapsed seconds
Timing for main: time 2016-02-05_12:46:00 on domain   3:     .18721 elapsed seconds
Timing for main: time 2016-02-05_12:45:40 on domain   4:     .21601 elapsed seconds
Timing for main: time 2016-02-05_12:46:00 on domain   4:     .21261 elapsed seconds
Timing for main: time 2016-02-05_12:46:00 on domain   2:    1.66929 elapsed seconds
Timing for main: time 2016-02-05_12:46:00 on domain   1:    5.41759 elapsed seconds
Timing for main: time 2016-02-05_12:46:13 on domain   3:     .19126 elapsed seconds
Timing for main: time 2016-02-05_12:46:26 on domain   3:     .17850 elapsed seconds
Timing for main: time 2016-02-05_12:46:40 on domain   3:     .17882 elapsed seconds
Timing for main: time 2016-02-05_12:46:20 on domain   4:     .21692 elapsed seconds
Timing for main: time 2016-02-05_12:46:40 on domain   4:     .21203 elapsed seconds
Timing for main: time 2016-02-05_12:46:40 on domain   2:    1.66727 elapsed seconds
Timing for main: time 2016-02-05_12:46:53 on domain   3:     .19296 elapsed seconds
Timing for main: time 2016-02-05_12:47:06 on domain   3:     .17895 elapsed seconds
Timing for main: time 2016-02-05_12:47:20 on domain   3:     .17937 elapsed seconds
Timing for main: time 2016-02-05_12:47:00 on domain   4:     .21893 elapsed seconds
Timing for main: time 2016-02-05_12:47:20 on domain   4:     .21330 elapsed seconds
Timing for main: time 2016-02-05_12:47:20 on domain   2:    1.66503 elapsed seconds
Timing for main: time 2016-02-05_12:47:33 on domain   3:     .19117 elapsed seconds
Timing for main: time 2016-02-05_12:47:46 on domain   3:     .17873 elapsed seconds
Timing for main: time 2016-02-05_12:48:00 on domain   3:     .17853 elapsed seconds
Timing for main: time 2016-02-05_12:47:40 on domain   4:     .21632 elapsed seconds
Timing for main: time 2016-02-05_12:48:00 on domain   4:     .21198 elapsed seconds
Timing for main: time 2016-02-05_12:48:00 on domain   2:    1.71289 elapsed seconds
Timing for main: time 2016-02-05_12:48:00 on domain   1:    5.41030 elapsed seconds
Timing for main: time 2016-02-05_12:48:13 on domain   3:     .19172 elapsed seconds
Timing for main: time 2016-02-05_12:48:26 on domain   3:     .17930 elapsed seconds
Timing for main: time 2016-02-05_12:48:40 on domain   3:     .17872 elapsed seconds
Timing for main: time 2016-02-05_12:48:20 on domain   4:     .21626 elapsed seconds
Timing for main: time 2016-02-05_12:48:40 on domain   4:     .21238 elapsed seconds
Timing for main: time 2016-02-05_12:48:40 on domain   2:    1.69994 elapsed seconds
Timing for main: time 2016-02-05_12:48:53 on domain   3:     .19131 elapsed seconds
Timing for main: time 2016-02-05_12:49:06 on domain   3:     .17883 elapsed seconds
Timing for main: time 2016-02-05_12:49:20 on domain   3:     .17859 elapsed seconds
Timing for main: time 2016-02-05_12:49:00 on domain   4:     .21681 elapsed seconds
Timing for main: time 2016-02-05_12:49:20 on domain   4:     .21191 elapsed seconds
Timing for main: time 2016-02-05_12:49:20 on domain   2:    1.66084 elapsed seconds
Timing for main: time 2016-02-05_12:49:33 on domain   3:     .19249 elapsed seconds
Timing for main: time 2016-02-05_12:49:46 on domain   3:     .17820 elapsed seconds
Timing for main: time 2016-02-05_12:50:00 on domain   3:     .17834 elapsed seconds
Timing for main: time 2016-02-05_12:49:40 on domain   4:     .21648 elapsed seconds
Timing for main: time 2016-02-05_12:50:00 on domain   4:     .22433 elapsed seconds
Timing for main: time 2016-02-05_12:50:00 on domain   2:    1.67388 elapsed seconds
Timing for main: time 2016-02-05_12:50:00 on domain   1:    5.41851 elapsed seconds
Timing for main: time 2016-02-05_12:50:13 on domain   3:     .19152 elapsed seconds
Timing for main: time 2016-02-05_12:50:26 on domain   3:     .17830 elapsed seconds
Timing for main: time 2016-02-05_12:50:40 on domain   3:     .17870 elapsed seconds
Timing for main: time 2016-02-05_12:50:20 on domain   4:     .21718 elapsed seconds
Timing for main: time 2016-02-05_12:50:40 on domain   4:     .21522 elapsed seconds
Timing for main: time 2016-02-05_12:50:40 on domain   2:    1.67116 elapsed seconds
Timing for main: time 2016-02-05_12:50:53 on domain   3:     .19548 elapsed seconds
Timing for main: time 2016-02-05_12:51:06 on domain   3:     .18768 elapsed seconds
Timing for main: time 2016-02-05_12:51:20 on domain   3:     .17795 elapsed seconds
Timing for main: time 2016-02-05_12:51:00 on domain   4:     .21637 elapsed seconds
Timing for main: time 2016-02-05_12:51:20 on domain   4:     .26342 elapsed seconds
Timing for main: time 2016-02-05_12:51:20 on domain   2:    1.72402 elapsed seconds
Timing for main: time 2016-02-05_12:51:33 on domain   3:     .19881 elapsed seconds
Timing for main: time 2016-02-05_12:51:46 on domain   3:     .23981 elapsed seconds
Timing for main: time 2016-02-05_12:52:00 on domain   3:     .18009 elapsed seconds
Timing for main: time 2016-02-05_12:51:40 on domain   4:     .21596 elapsed seconds
Timing for main: time 2016-02-05_12:52:00 on domain   4:     .21249 elapsed seconds
Timing for main: time 2016-02-05_12:52:00 on domain   2:    1.73161 elapsed seconds
Timing for main: time 2016-02-05_12:52:00 on domain   1:    5.48594 elapsed seconds
Timing for main: time 2016-02-05_12:52:13 on domain   3:     .19138 elapsed seconds
Timing for main: time 2016-02-05_12:52:26 on domain   3:     .17907 elapsed seconds
Timing for main: time 2016-02-05_12:52:40 on domain   3:     .17868 elapsed seconds
Timing for main: time 2016-02-05_12:52:20 on domain   4:     .21654 elapsed seconds
Timing for main: time 2016-02-05_12:52:40 on domain   4:     .21338 elapsed seconds
Timing for main: time 2016-02-05_12:52:40 on domain   2:    1.66966 elapsed seconds
Timing for main: time 2016-02-05_12:52:53 on domain   3:     .19145 elapsed seconds
Timing for main: time 2016-02-05_12:53:06 on domain   3:     .17851 elapsed seconds
Timing for main: time 2016-02-05_12:53:20 on domain   3:     .17911 elapsed seconds
Timing for main: time 2016-02-05_12:53:00 on domain   4:     .21664 elapsed seconds
Timing for main: time 2016-02-05_12:53:20 on domain   4:     .21235 elapsed seconds
Timing for main: time 2016-02-05_12:53:20 on domain   2:    1.67041 elapsed seconds
Timing for main: time 2016-02-05_12:53:33 on domain   3:     .19124 elapsed seconds
Timing for main: time 2016-02-05_12:53:46 on domain   3:     .17884 elapsed seconds
Timing for main: time 2016-02-05_12:54:00 on domain   3:     .17893 elapsed seconds
Timing for main: time 2016-02-05_12:53:40 on domain   4:     .21793 elapsed seconds
Timing for main: time 2016-02-05_12:54:00 on domain   4:     .21324 elapsed seconds
Timing for main: time 2016-02-05_12:54:00 on domain   2:    1.66404 elapsed seconds
Timing for main: time 2016-02-05_12:54:00 on domain   1:    5.36949 elapsed seconds
Timing for main: time 2016-02-05_12:54:13 on domain   3:     .19208 elapsed seconds
Timing for main: time 2016-02-05_12:54:26 on domain   3:     .18826 elapsed seconds
Timing for main: time 2016-02-05_12:54:40 on domain   3:     .17923 elapsed seconds
Timing for main: time 2016-02-05_12:54:20 on domain   4:     .22572 elapsed seconds
Timing for main: time 2016-02-05_12:54:40 on domain   4:     .21291 elapsed seconds
Timing for main: time 2016-02-05_12:54:40 on domain   2:    1.68840 elapsed seconds
Timing for main: time 2016-02-05_12:54:53 on domain   3:     .19136 elapsed seconds
Timing for main: time 2016-02-05_12:55:06 on domain   3:     .17876 elapsed seconds
Timing for main: time 2016-02-05_12:55:20 on domain   3:     .17878 elapsed seconds
Timing for main: time 2016-02-05_12:55:00 on domain   4:     .22613 elapsed seconds
Timing for main: time 2016-02-05_12:55:20 on domain   4:     .21226 elapsed seconds
Timing for main: time 2016-02-05_12:55:20 on domain   2:    1.66973 elapsed seconds
Timing for main: time 2016-02-05_12:55:33 on domain   3:     .19130 elapsed seconds
Timing for main: time 2016-02-05_12:55:46 on domain   3:     .17897 elapsed seconds
Timing for main: time 2016-02-05_12:56:00 on domain   3:     .17882 elapsed seconds
Timing for main: time 2016-02-05_12:55:40 on domain   4:     .21789 elapsed seconds
Timing for main: time 2016-02-05_12:56:00 on domain   4:     .21221 elapsed seconds
Timing for main: time 2016-02-05_12:56:00 on domain   2:    1.66206 elapsed seconds
Timing for main: time 2016-02-05_12:56:00 on domain   1:    5.37971 elapsed seconds
Timing for main: time 2016-02-05_12:56:13 on domain   3:     .19936 elapsed seconds
Timing for main: time 2016-02-05_12:56:26 on domain   3:     .17882 elapsed seconds
Timing for main: time 2016-02-05_12:56:40 on domain   3:     .17897 elapsed seconds
Timing for main: time 2016-02-05_12:56:20 on domain   4:     .22996 elapsed seconds
Timing for main: time 2016-02-05_12:56:40 on domain   4:     .21356 elapsed seconds
Timing for main: time 2016-02-05_12:56:40 on domain   2:    1.69065 elapsed seconds
Timing for main: time 2016-02-05_12:56:53 on domain   3:     .19120 elapsed seconds
Timing for main: time 2016-02-05_12:57:06 on domain   3:     .17975 elapsed seconds
Timing for main: time 2016-02-05_12:57:20 on domain   3:     .17777 elapsed seconds
Timing for main: time 2016-02-05_12:57:00 on domain   4:     .21641 elapsed seconds
Timing for main: time 2016-02-05_12:57:20 on domain   4:     .21382 elapsed seconds
Timing for main: time 2016-02-05_12:57:20 on domain   2:    1.66166 elapsed seconds
Timing for main: time 2016-02-05_12:57:33 on domain   3:     .19148 elapsed seconds
Timing for main: time 2016-02-05_12:57:46 on domain   3:     .17952 elapsed seconds
Timing for main: time 2016-02-05_12:58:00 on domain   3:     .20549 elapsed seconds
Timing for main: time 2016-02-05_12:57:40 on domain   4:     .21669 elapsed seconds
Timing for main: time 2016-02-05_12:58:00 on domain   4:     .21258 elapsed seconds
Timing for main: time 2016-02-05_12:58:00 on domain   2:    1.70763 elapsed seconds
Timing for main: time 2016-02-05_12:58:00 on domain   1:    5.41854 elapsed seconds
  photolysis_driver: called for domain  1
Timing for main: time 2016-02-05_12:58:13 on domain   3:     .19154 elapsed seconds
Timing for main: time 2016-02-05_12:58:26 on domain   3:     .17887 elapsed seconds
Timing for main: time 2016-02-05_12:58:40 on domain   3:     .17877 elapsed seconds
Timing for main: time 2016-02-05_12:58:20 on domain   4:     .21658 elapsed seconds
Timing for main: time 2016-02-05_12:58:40 on domain   4:     .21232 elapsed seconds
Timing for main: time 2016-02-05_12:58:40 on domain   2:    1.67891 elapsed seconds
Timing for main: time 2016-02-05_12:58:53 on domain   3:     .19180 elapsed seconds
Timing for main: time 2016-02-05_12:59:06 on domain   3:     .17886 elapsed seconds
Timing for main: time 2016-02-05_12:59:20 on domain   3:     .18133 elapsed seconds
Timing for main: time 2016-02-05_12:59:00 on domain   4:     .21655 elapsed seconds
Timing for main: time 2016-02-05_12:59:20 on domain   4:     .21239 elapsed seconds
Timing for main: time 2016-02-05_12:59:20 on domain   2:    1.66197 elapsed seconds
  photolysis_driver: called for domain  2
Timing for main: time 2016-02-05_12:59:33 on domain   3:     .19066 elapsed seconds
Timing for main: time 2016-02-05_12:59:46 on domain   3:     .17897 elapsed seconds
  photolysis_driver: called for domain  3
Timing for main: time 2016-02-05_13:00:00 on domain   3:    1.04700 elapsed seconds
Timing for main: time 2016-02-05_12:59:40 on domain   4:     .21644 elapsed seconds
  photolysis_driver: called for domain  4
Timing for main: time 2016-02-05_13:00:00 on domain   4:    1.23678 elapsed seconds
Timing for main: time 2016-02-05_13:00:00 on domain   2:    4.64017 elapsed seconds
Timing for main: time 2016-02-05_13:00:00 on domain   1:    9.03170 elapsed seconds
Timing for Writing wrfout_d01_2016-02-05_13:00:00 for domain        1:    1.38822 elapsed seconds
  HOURLY EMISSIONS UPDATE TIME     3600.0        .0
 mediation_integrate: med_read_wrf_chem_emissions: Read emissions for time 2016-02-05_13:00:00
 **WARNING** Time in input file not being checked **WARNING**
Timing for Writing wrfout_d02_2016-02-05_13:00:00 for domain        2:    1.92793 elapsed seconds
Timing for Writing wrfout_d03_2016-02-05_13:00:00 for domain        3:    1.85168 elapsed seconds
Timing for main: time 2016-02-05_13:00:13 on domain   3:    2.23255 elapsed seconds
Timing for main: time 2016-02-05_13:00:26 on domain   3:     .20334 elapsed seconds
Timing for main: time 2016-02-05_13:00:40 on domain   3:     .19729 elapsed seconds
Timing for Writing wrfout_d04_2016-02-05_13:00:00 for domain        4:    1.94563 elapsed seconds
Timing for main: time 2016-02-05_13:00:20 on domain   4:    2.41693 elapsed seconds
Timing for main: time 2016-02-05_13:00:40 on domain   4:     .23851 elapsed seconds
Timing for main: time 2016-02-05_13:00:40 on domain   2:    8.17271 elapsed seconds
Timing for main: time 2016-02-05_13:00:53 on domain   3:     .19134 elapsed seconds
Timing for main: time 2016-02-05_13:01:06 on domain   3:     .18497 elapsed seconds
Timing for main: time 2016-02-05_13:01:20 on domain   3:     .18630 elapsed seconds
Timing for main: time 2016-02-05_13:01:00 on domain   4:     .21983 elapsed seconds
Timing for main: time 2016-02-05_13:01:20 on domain   4:     .21316 elapsed seconds
Timing for main: time 2016-02-05_13:01:20 on domain   2:    1.69276 elapsed seconds
Timing for main: time 2016-02-05_13:01:33 on domain   3:     .19130 elapsed seconds
Timing for main: time 2016-02-05_13:01:46 on domain   3:     .18006 elapsed seconds
Timing for main: time 2016-02-05_13:02:00 on domain   3:     .17812 elapsed seconds
Timing for main: time 2016-02-05_13:01:40 on domain   4:     .21674 elapsed seconds
Timing for main: time 2016-02-05_13:02:00 on domain   4:     .21234 elapsed seconds
Timing for main: time 2016-02-05_13:02:00 on domain   2:    1.66234 elapsed seconds
Timing for main: time 2016-02-05_13:02:00 on domain   1:   13.88276 elapsed seconds
Timing for main: time 2016-02-05_13:02:13 on domain   3:     .19127 elapsed seconds
Timing for main: time 2016-02-05_13:02:26 on domain   3:     .17914 elapsed seconds
Timing for main: time 2016-02-05_13:02:40 on domain   3:     .17937 elapsed seconds
Timing for main: time 2016-02-05_13:02:20 on domain   4:     .21592 elapsed seconds
Timing for main: time 2016-02-05_13:02:40 on domain   4:     .21230 elapsed seconds
Timing for main: time 2016-02-05_13:02:40 on domain   2:    1.67000 elapsed seconds
Timing for main: time 2016-02-05_13:02:53 on domain   3:     .19155 elapsed seconds
Timing for main: time 2016-02-05_13:03:06 on domain   3:     .17923 elapsed seconds
Timing for main: time 2016-02-05_13:03:20 on domain   3:     .17890 elapsed seconds
Timing for main: time 2016-02-05_13:03:00 on domain   4:     .21955 elapsed seconds
Timing for main: time 2016-02-05_13:03:20 on domain   4:     .21197 elapsed seconds
Timing for main: time 2016-02-05_13:03:20 on domain   2:    1.66464 elapsed seconds
Timing for main: time 2016-02-05_13:03:33 on domain   3:     .19168 elapsed seconds
Timing for main: time 2016-02-05_13:03:46 on domain   3:     .17903 elapsed seconds
Timing for main: time 2016-02-05_13:04:00 on domain   3:     .17912 elapsed seconds
Timing for main: time 2016-02-05_13:03:40 on domain   4:     .21717 elapsed seconds
Timing for main: time 2016-02-05_13:04:00 on domain   4:     .21335 elapsed seconds
Timing for main: time 2016-02-05_13:04:00 on domain   2:    1.67290 elapsed seconds
Timing for main: time 2016-02-05_13:04:00 on domain   1:    5.36626 elapsed seconds
Timing for main: time 2016-02-05_13:04:13 on domain   3:     .19338 elapsed seconds
Timing for main: time 2016-02-05_13:04:26 on domain   3:     .18152 elapsed seconds
Timing for main: time 2016-02-05_13:04:40 on domain   3:     .17862 elapsed seconds
Timing for main: time 2016-02-05_13:04:20 on domain   4:     .22174 elapsed seconds
Timing for main: time 2016-02-05_13:04:40 on domain   4:     .21218 elapsed seconds
Timing for main: time 2016-02-05_13:04:40 on domain   2:    1.73100 elapsed seconds
Timing for main: time 2016-02-05_13:04:53 on domain   3:     .19636 elapsed seconds
Timing for main: time 2016-02-05_13:05:06 on domain   3:     .18097 elapsed seconds
Timing for main: time 2016-02-05_13:05:20 on domain   3:     .17734 elapsed seconds
Timing for main: time 2016-02-05_13:05:00 on domain   4:     .22608 elapsed seconds
Timing for main: time 2016-02-05_13:05:20 on domain   4:     .21208 elapsed seconds
Timing for main: time 2016-02-05_13:05:20 on domain   2:    1.67621 elapsed seconds
Timing for main: time 2016-02-05_13:05:33 on domain   3:     .19083 elapsed seconds
Timing for main: time 2016-02-05_13:05:46 on domain   3:     .17940 elapsed seconds
Timing for main: time 2016-02-05_13:06:00 on domain   3:     .17941 elapsed seconds
Timing for main: time 2016-02-05_13:05:40 on domain   4:     .21632 elapsed seconds
Timing for main: time 2016-02-05_13:06:00 on domain   4:     .21246 elapsed seconds
Timing for main: time 2016-02-05_13:06:00 on domain   2:    1.66165 elapsed seconds
Timing for main: time 2016-02-05_13:06:00 on domain   1:    5.43526 elapsed seconds
Timing for main: time 2016-02-05_13:06:13 on domain   3:     .19164 elapsed seconds
Timing for main: time 2016-02-05_13:06:26 on domain   3:     .18688 elapsed seconds
Timing for main: time 2016-02-05_13:06:40 on domain   3:     .18008 elapsed seconds
Timing for main: time 2016-02-05_13:06:20 on domain   4:     .21668 elapsed seconds
Timing for main: time 2016-02-05_13:06:40 on domain   4:     .21223 elapsed seconds
Timing for main: time 2016-02-05_13:06:40 on domain   2:    1.67632 elapsed seconds
Timing for main: time 2016-02-05_13:06:53 on domain   3:     .19160 elapsed seconds
Timing for main: time 2016-02-05_13:07:06 on domain   3:     .17861 elapsed seconds
Timing for main: time 2016-02-05_13:07:20 on domain   3:     .17921 elapsed seconds
Timing for main: time 2016-02-05_13:07:00 on domain   4:     .21644 elapsed seconds
Timing for main: time 2016-02-05_13:07:20 on domain   4:     .21319 elapsed seconds
Timing for main: time 2016-02-05_13:07:20 on domain   2:    1.66198 elapsed seconds
Timing for main: time 2016-02-05_13:07:33 on domain   3:     .19301 elapsed seconds
Timing for main: time 2016-02-05_13:07:46 on domain   3:     .17915 elapsed seconds
Timing for main: time 2016-02-05_13:08:00 on domain   3:     .18079 elapsed seconds
Timing for main: time 2016-02-05_13:07:40 on domain   4:     .21637 elapsed seconds
Timing for main: time 2016-02-05_13:08:00 on domain   4:     .21213 elapsed seconds
Timing for main: time 2016-02-05_13:08:00 on domain   2:    1.66336 elapsed seconds
Timing for main: time 2016-02-05_13:08:00 on domain   1:    5.36112 elapsed seconds
Timing for main: time 2016-02-05_13:08:13 on domain   3:     .22988 elapsed seconds
Timing for main: time 2016-02-05_13:08:26 on domain   3:     .20182 elapsed seconds
Timing for main: time 2016-02-05_13:08:40 on domain   3:     .19229 elapsed seconds
Timing for main: time 2016-02-05_13:08:20 on domain   4:     .21641 elapsed seconds
Timing for main: time 2016-02-05_13:08:40 on domain   4:     .21376 elapsed seconds
Timing for main: time 2016-02-05_13:08:40 on domain   2:    1.74383 elapsed seconds
Timing for main: time 2016-02-05_13:08:53 on domain   3:     .20643 elapsed seconds
Timing for main: time 2016-02-05_13:09:06 on domain   3:     .17899 elapsed seconds
Timing for main: time 2016-02-05_13:09:20 on domain   3:     .17900 elapsed seconds
Timing for main: time 2016-02-05_13:09:00 on domain   4:     .21626 elapsed seconds
Timing for main: time 2016-02-05_13:09:20 on domain   4:     .21233 elapsed seconds
Timing for main: time 2016-02-05_13:09:20 on domain   2:    1.68504 elapsed seconds
Timing for main: time 2016-02-05_13:09:33 on domain   3:     .19103 elapsed seconds
Timing for main: time 2016-02-05_13:09:46 on domain   3:     .17893 elapsed seconds
Timing for main: time 2016-02-05_13:10:00 on domain   3:     .17900 elapsed seconds
Timing for main: time 2016-02-05_13:09:40 on domain   4:     .21734 elapsed seconds
Timing for main: time 2016-02-05_13:10:00 on domain   4:     .22179 elapsed seconds
Timing for main: time 2016-02-05_13:10:00 on domain   2:    1.67063 elapsed seconds
Timing for main: time 2016-02-05_13:10:00 on domain   1:    5.45890 elapsed seconds
Timing for main: time 2016-02-05_13:10:13 on domain   3:     .19183 elapsed seconds
Timing for main: time 2016-02-05_13:10:26 on domain   3:     .17894 elapsed seconds
Timing for main: time 2016-02-05_13:10:40 on domain   3:     .17883 elapsed seconds
Timing for main: time 2016-02-05_13:10:20 on domain   4:     .21684 elapsed seconds
Timing for main: time 2016-02-05_13:10:40 on domain   4:     .21215 elapsed seconds
Timing for main: time 2016-02-05_13:10:40 on domain   2:    1.66847 elapsed seconds
Timing for main: time 2016-02-05_13:10:53 on domain   3:     .19131 elapsed seconds
Timing for main: time 2016-02-05_13:11:06 on domain   3:     .17961 elapsed seconds
Timing for main: time 2016-02-05_13:11:20 on domain   3:     .17900 elapsed seconds
Timing for main: time 2016-02-05_13:11:00 on domain   4:     .21643 elapsed seconds
Timing for main: time 2016-02-05_13:11:20 on domain   4:     .21200 elapsed seconds
Timing for main: time 2016-02-05_13:11:20 on domain   2:    1.66145 elapsed seconds
Timing for main: time 2016-02-05_13:11:33 on domain   3:     .19915 elapsed seconds
Timing for main: time 2016-02-05_13:11:46 on domain   3:     .18294 elapsed seconds
Timing for main: time 2016-02-05_13:12:00 on domain   3:     .18053 elapsed seconds
Timing for main: time 2016-02-05_13:11:40 on domain   4:     .21906 elapsed seconds
Timing for main: time 2016-02-05_13:12:00 on domain   4:     .21293 elapsed seconds
Timing for main: time 2016-02-05_13:12:00 on domain   2:    1.67826 elapsed seconds
Timing for main: time 2016-02-05_13:12:00 on domain   1:    5.37288 elapsed seconds
Timing for main: time 2016-02-05_13:12:13 on domain   3:     .19446 elapsed seconds
Timing for main: time 2016-02-05_13:12:26 on domain   3:     .18301 elapsed seconds
Timing for main: time 2016-02-05_13:12:40 on domain   3:     .18001 elapsed seconds
Timing for main: time 2016-02-05_13:12:20 on domain   4:     .21647 elapsed seconds
Timing for main: time 2016-02-05_13:12:40 on domain   4:     .21210 elapsed seconds
Timing for main: time 2016-02-05_13:12:40 on domain   2:    1.69045 elapsed seconds
Timing for main: time 2016-02-05_13:12:53 on domain   3:     .19137 elapsed seconds
Timing for main: time 2016-02-05_13:13:06 on domain   3:     .17897 elapsed seconds
Timing for main: time 2016-02-05_13:13:20 on domain   3:     .18155 elapsed seconds
Timing for main: time 2016-02-05_13:13:00 on domain   4:     .21629 elapsed seconds
Timing for main: time 2016-02-05_13:13:20 on domain   4:     .21215 elapsed seconds
Timing for main: time 2016-02-05_13:13:20 on domain   2:    1.66021 elapsed seconds
Timing for main: time 2016-02-05_13:13:33 on domain   3:     .19139 elapsed seconds
Timing for main: time 2016-02-05_13:13:46 on domain   3:     .18170 elapsed seconds
Timing for main: time 2016-02-05_13:14:00 on domain   3:     .18485 elapsed seconds
Timing for main: time 2016-02-05_13:13:40 on domain   4:     .21206 elapsed seconds
Timing for main: time 2016-02-05_13:14:00 on domain   4:     .21386 elapsed seconds
Timing for main: time 2016-02-05_13:14:00 on domain   2:    1.67078 elapsed seconds
Timing for main: time 2016-02-05_13:14:00 on domain   1:    5.38144 elapsed seconds
Timing for main: time 2016-02-05_13:14:13 on domain   3:     .19152 elapsed seconds
Timing for main: time 2016-02-05_13:14:26 on domain   3:     .18574 elapsed seconds
Timing for main: time 2016-02-05_13:14:40 on domain   3:     .17922 elapsed seconds
Timing for main: time 2016-02-05_13:14:20 on domain   4:     .21827 elapsed seconds
Timing for main: time 2016-02-05_13:14:40 on domain   4:     .21019 elapsed seconds
Timing for main: time 2016-02-05_13:14:40 on domain   2:    1.68494 elapsed seconds
Timing for main: time 2016-02-05_13:14:53 on domain   3:     .19144 elapsed seconds
Timing for main: time 2016-02-05_13:15:06 on domain   3:     .17964 elapsed seconds
Timing for main: time 2016-02-05_13:15:20 on domain   3:     .17878 elapsed seconds
Timing for main: time 2016-02-05_13:15:00 on domain   4:     .22588 elapsed seconds
Timing for main: time 2016-02-05_13:15:20 on domain   4:     .21220 elapsed seconds
Timing for main: time 2016-02-05_13:15:20 on domain   2:    1.67655 elapsed seconds
Timing for main: time 2016-02-05_13:15:33 on domain   3:     .19201 elapsed seconds
Timing for main: time 2016-02-05_13:15:46 on domain   3:     .17837 elapsed seconds
Timing for main: time 2016-02-05_13:16:00 on domain   3:     .18089 elapsed seconds
Timing for main: time 2016-02-05_13:15:40 on domain   4:     .21584 elapsed seconds
Timing for main: time 2016-02-05_13:16:00 on domain   4:     .21244 elapsed seconds
Timing for main: time 2016-02-05_13:16:00 on domain   2:    1.66259 elapsed seconds
Timing for main: time 2016-02-05_13:16:00 on domain   1:    5.38252 elapsed seconds
Timing for main: time 2016-02-05_13:16:13 on domain   3:     .19148 elapsed seconds
Timing for main: time 2016-02-05_13:16:26 on domain   3:     .17865 elapsed seconds
Timing for main: time 2016-02-05_13:16:40 on domain   3:     .18821 elapsed seconds
Timing for main: time 2016-02-05_13:16:20 on domain   4:     .21658 elapsed seconds
Timing for main: time 2016-02-05_13:16:40 on domain   4:     .21244 elapsed seconds
Timing for main: time 2016-02-05_13:16:40 on domain   2:    1.67726 elapsed seconds
Timing for main: time 2016-02-05_13:16:53 on domain   3:     .19118 elapsed seconds
Timing for main: time 2016-02-05_13:17:06 on domain   3:     .17944 elapsed seconds
Timing for main: time 2016-02-05_13:17:20 on domain   3:     .17895 elapsed seconds
Timing for main: time 2016-02-05_13:17:00 on domain   4:     .21625 elapsed seconds
Timing for main: time 2016-02-05_13:17:20 on domain   4:     .21244 elapsed seconds
Timing for main: time 2016-02-05_13:17:20 on domain   2:    1.66203 elapsed seconds
Timing for main: time 2016-02-05_13:17:33 on domain   3:     .19146 elapsed seconds
[...]
Timing for main: time 2016-02-05_21:36:00 on domain   2:    1.67898 elapsed seconds
Timing for main: time 2016-02-05_21:36:00 on domain   1:    5.39735 elapsed seconds
Timing for main: time 2016-02-05_21:36:13 on domain   3:     .19399 elapsed seconds
Timing for main: time 2016-02-05_21:36:26 on domain   3:     .17963 elapsed seconds
Timing for main: time 2016-02-05_21:36:40 on domain   3:     .17977 elapsed seconds
Timing for main: time 2016-02-05_21:36:20 on domain   4:     .21599 elapsed seconds
Timing for main: time 2016-02-05_21:36:40 on domain   4:     .21184 elapsed seconds
Timing for main: time 2016-02-05_21:36:40 on domain   2:    1.66797 elapsed seconds
Timing for main: time 2016-02-05_21:36:53 on domain   3:     .19435 elapsed seconds
Timing for main: time 2016-02-05_21:37:06 on domain   3:     .17969 elapsed seconds
Timing for main: time 2016-02-05_21:37:20 on domain   3:     .17996 elapsed seconds
Timing for main: time 2016-02-05_21:37:00 on domain   4:     .21598 elapsed seconds
Timing for main: time 2016-02-05_21:37:20 on domain   4:     .21254 elapsed seconds
Timing for main: time 2016-02-05_21:37:20 on domain   2:    1.66400 elapsed seconds
Timing for main: time 2016-02-05_21:37:33 on domain   3:     .20380 elapsed seconds
Timing for main: time 2016-02-05_21:37:46 on domain   3:     .17908 elapsed seconds
Timing for main: time 2016-02-05_21:38:00 on domain   3:     .18009 elapsed seconds
Timing for main: time 2016-02-05_21:37:40 on domain   4:     .21583 elapsed seconds
Timing for main: time 2016-02-05_21:38:00 on domain   4:     .21250 elapsed seconds
Timing for main: time 2016-02-05_21:38:00 on domain   2:    1.67395 elapsed seconds
Timing for main: time 2016-02-05_21:38:00 on domain   1:    5.36907 elapsed seconds
Timing for main: time 2016-02-05_21:38:13 on domain   3:     .19430 elapsed seconds
Timing for main: time 2016-02-05_21:38:26 on domain   3:     .17967 elapsed seconds
Timing for main: time 2016-02-05_21:38:40 on domain   3:     .17930 elapsed seconds
Timing for main: time 2016-02-05_21:38:20 on domain   4:     .21963 elapsed seconds
Timing for main: time 2016-02-05_21:38:40 on domain   4:     .22314 elapsed seconds
Timing for main: time 2016-02-05_21:38:40 on domain   2:    1.68577 elapsed seconds
Timing for main: time 2016-02-05_21:38:53 on domain   3:     .19386 elapsed seconds
Timing for main: time 2016-02-05_21:39:06 on domain   3:     .18243 elapsed seconds
Timing for main: time 2016-02-05_21:39:20 on domain   3:     .18308 elapsed seconds
Timing for main: time 2016-02-05_21:39:00 on domain   4:     .21581 elapsed seconds
Timing for main: time 2016-02-05_21:39:20 on domain   4:     .21186 elapsed seconds
Timing for main: time 2016-02-05_21:39:20 on domain   2:    1.66758 elapsed seconds
Timing for main: time 2016-02-05_21:39:33 on domain   3:     .19458 elapsed seconds
Timing for main: time 2016-02-05_21:39:46 on domain   3:     .18242 elapsed seconds
Timing for main: time 2016-02-05_21:40:00 on domain   3:     .18196 elapsed seconds
Timing for main: time 2016-02-05_21:39:40 on domain   4:     .22108 elapsed seconds
Timing for main: time 2016-02-05_21:40:00 on domain   4:     .22374 elapsed seconds
Timing for main: time 2016-02-05_21:40:00 on domain   2:    1.68406 elapsed seconds
Timing for main: time 2016-02-05_21:40:00 on domain   1:    5.40368 elapsed seconds
Timing for main: time 2016-02-05_21:40:13 on domain   3:     .19444 elapsed seconds
Timing for main: time 2016-02-05_21:40:26 on domain   3:     .17936 elapsed seconds
Timing for main: time 2016-02-05_21:40:40 on domain   3:     .17988 elapsed seconds
Timing for main: time 2016-02-05_21:40:20 on domain   4:     .21596 elapsed seconds
Timing for main: time 2016-02-05_21:40:40 on domain   4:     .21252 elapsed seconds
Timing for main: time 2016-02-05_21:40:40 on domain   2:    1.66923 elapsed seconds
Timing for main: time 2016-02-05_21:40:53 on domain   3:     .19401 elapsed seconds
Timing for main: time 2016-02-05_21:41:06 on domain   3:     .17956 elapsed seconds
Timing for main: time 2016-02-05_21:41:20 on domain   3:     .17987 elapsed seconds
Timing for main: time 2016-02-05_21:41:00 on domain   4:     .21544 elapsed seconds
Timing for main: time 2016-02-05_21:41:20 on domain   4:     .21244 elapsed seconds
Timing for main: time 2016-02-05_21:41:20 on domain   2:    1.67233 elapsed seconds
Timing for main: time 2016-02-05_21:41:33 on domain   3:     .19442 elapsed seconds
Timing for main: time 2016-02-05_21:41:46 on domain   3:     .17963 elapsed seconds
Timing for main: time 2016-02-05_21:42:00 on domain   3:     .17975 elapsed seconds
Timing for main: time 2016-02-05_21:41:40 on domain   4:     .21586 elapsed seconds
Timing for main: time 2016-02-05_21:42:00 on domain   4:     .21180 elapsed seconds
Timing for main: time 2016-02-05_21:42:00 on domain   2:    1.66298 elapsed seconds
Timing for main: time 2016-02-05_21:42:00 on domain   1:    5.37876 elapsed seconds
Timing for main: time 2016-02-05_21:42:13 on domain   3:     .19482 elapsed seconds
Timing for main: time 2016-02-05_21:42:26 on domain   3:     .18057 elapsed seconds
Timing for main: time 2016-02-05_21:42:40 on domain   3:     .18765 elapsed seconds
Timing for main: time 2016-02-05_21:42:20 on domain   4:     .21585 elapsed seconds
Timing for main: time 2016-02-05_21:42:40 on domain   4:     .25399 elapsed seconds
Timing for main: time 2016-02-05_21:42:40 on domain   2:    1.72027 elapsed seconds
Timing for main: time 2016-02-05_21:42:53 on domain   3:     .19454 elapsed seconds
Timing for main: time 2016-02-05_21:43:06 on domain   3:     .17962 elapsed seconds
Timing for main: time 2016-02-05_21:43:20 on domain   3:     .18173 elapsed seconds
Timing for main: time 2016-02-05_21:43:00 on domain   4:     .21592 elapsed seconds
Timing for main: time 2016-02-05_21:43:20 on domain   4:     .21223 elapsed seconds
Timing for main: time 2016-02-05_21:43:20 on domain   2:    1.71734 elapsed seconds
Timing for main: time 2016-02-05_21:43:33 on domain   3:     .24344 elapsed seconds
Timing for main: time 2016-02-05_21:43:46 on domain   3:     .21469 elapsed seconds
Timing for main: time 2016-02-05_21:44:00 on domain   3:     .18014 elapsed seconds
Timing for main: time 2016-02-05_21:43:40 on domain   4:     .21579 elapsed seconds
Timing for main: time 2016-02-05_21:44:00 on domain   4:     .21302 elapsed seconds
Timing for main: time 2016-02-05_21:44:00 on domain   2:    1.74989 elapsed seconds
Timing for main: time 2016-02-05_21:44:00 on domain   1:    5.55384 elapsed seconds
Timing for main: time 2016-02-05_21:44:13 on domain   3:     .19420 elapsed seconds
Timing for main: time 2016-02-05_21:44:26 on domain   3:     .17937 elapsed seconds
Timing for main: time 2016-02-05_21:44:40 on domain   3:     .17970 elapsed seconds
Timing for main: time 2016-02-05_21:44:20 on domain   4:     .21559 elapsed seconds
Timing for main: time 2016-02-05_21:44:40 on domain   4:     .21188 elapsed seconds
Timing for main: time 2016-02-05_21:44:40 on domain   2:    1.66838 elapsed seconds
Timing for main: time 2016-02-05_21:44:53 on domain   3:     .19477 elapsed seconds
Timing for main: time 2016-02-05_21:45:06 on domain   3:     .17898 elapsed seconds
Timing for main: time 2016-02-05_21:45:20 on domain   3:     .18021 elapsed seconds
Timing for main: time 2016-02-05_21:45:00 on domain   4:     .22678 elapsed seconds
Timing for main: time 2016-02-05_21:45:20 on domain   4:     .21036 elapsed seconds
Timing for main: time 2016-02-05_21:45:20 on domain   2:    1.67325 elapsed seconds
Timing for main: time 2016-02-05_21:45:33 on domain   3:     .19784 elapsed seconds
Timing for main: time 2016-02-05_21:45:46 on domain   3:     .17955 elapsed seconds
Timing for main: time 2016-02-05_21:46:00 on domain   3:     .17955 elapsed seconds
Timing for main: time 2016-02-05_21:45:40 on domain   4:     .21576 elapsed seconds
Timing for main: time 2016-02-05_21:46:00 on domain   4:     .21211 elapsed seconds
Timing for main: time 2016-02-05_21:46:00 on domain   2:    1.66573 elapsed seconds
Timing for main: time 2016-02-05_21:46:00 on domain   1:    5.37465 elapsed seconds
Timing for main: time 2016-02-05_21:46:13 on domain   3:     .19384 elapsed seconds
Timing for main: time 2016-02-05_21:46:26 on domain   3:     .17938 elapsed seconds
Timing for main: time 2016-02-05_21:46:40 on domain   3:     .17951 elapsed seconds
Timing for main: time 2016-02-05_21:46:20 on domain   4:     .21616 elapsed seconds
Timing for main: time 2016-02-05_21:46:40 on domain   4:     .21242 elapsed seconds
Timing for main: time 2016-02-05_21:46:40 on domain   2:    1.67926 elapsed seconds
Timing for main: time 2016-02-05_21:46:53 on domain   3:     .19390 elapsed seconds
Timing for main: time 2016-02-05_21:47:06 on domain   3:     .18276 elapsed seconds
Timing for main: time 2016-02-05_21:47:20 on domain   3:     .18023 elapsed seconds
Timing for main: time 2016-02-05_21:47:00 on domain   4:     .21573 elapsed seconds
Timing for main: time 2016-02-05_21:47:20 on domain   4:     .21219 elapsed seconds
Timing for main: time 2016-02-05_21:47:20 on domain   2:    1.66591 elapsed seconds
Timing for main: time 2016-02-05_21:47:33 on domain   3:     .19495 elapsed seconds
Timing for main: time 2016-02-05_21:47:46 on domain   3:     .18760 elapsed seconds
Timing for main: time 2016-02-05_21:48:00 on domain   3:     .19707 elapsed seconds
Timing for main: time 2016-02-05_21:47:40 on domain   4:     .21594 elapsed seconds
Timing for main: time 2016-02-05_21:48:00 on domain   4:     .21184 elapsed seconds
Timing for main: time 2016-02-05_21:48:00 on domain   2:    1.68876 elapsed seconds
Timing for main: time 2016-02-05_21:48:00 on domain   1:    5.40785 elapsed seconds
Timing for main: time 2016-02-05_21:48:13 on domain   3:     .19394 elapsed seconds
Timing for main: time 2016-02-05_21:48:26 on domain   3:     .18004 elapsed seconds
Timing for main: time 2016-02-05_21:48:40 on domain   3:     .17997 elapsed seconds
Timing for main: time 2016-02-05_21:48:20 on domain   4:     .21675 elapsed seconds
Timing for main: time 2016-02-05_21:48:40 on domain   4:     .21294 elapsed seconds
Timing for main: time 2016-02-05_21:48:40 on domain   2:    1.67011 elapsed seconds
Timing for main: time 2016-02-05_21:48:53 on domain   3:     .19445 elapsed seconds
Timing for main: time 2016-02-05_21:49:06 on domain   3:     .17975 elapsed seconds
Timing for main: time 2016-02-05_21:49:20 on domain   3:     .17982 elapsed seconds
Timing for main: time 2016-02-05_21:49:00 on domain   4:     .21576 elapsed seconds
Timing for main: time 2016-02-05_21:49:20 on domain   4:     .21200 elapsed seconds
Timing for main: time 2016-02-05_21:49:20 on domain   2:    1.72336 elapsed seconds
Timing for main: time 2016-02-05_21:49:33 on domain   3:     .19388 elapsed seconds
Timing for main: time 2016-02-05_21:49:46 on domain   3:     .17952 elapsed seconds
Timing for main: time 2016-02-05_21:50:00 on domain   3:     .17992 elapsed seconds
Timing for main: time 2016-02-05_21:49:40 on domain   4:     .21604 elapsed seconds
Timing for main: time 2016-02-05_21:50:00 on domain   4:     .22286 elapsed seconds
Timing for main: time 2016-02-05_21:50:00 on domain   2:    1.67756 elapsed seconds
Timing for main: time 2016-02-05_21:50:00 on domain   1:    5.43980 elapsed seconds
Timing for main: time 2016-02-05_21:50:13 on domain   3:     .19445 elapsed seconds
Timing for main: time 2016-02-05_21:50:26 on domain   3:     .17949 elapsed seconds
Timing for main: time 2016-02-05_21:50:40 on domain   3:     .18090 elapsed seconds
Timing for main: time 2016-02-05_21:50:20 on domain   4:     .21634 elapsed seconds
Timing for main: time 2016-02-05_21:50:40 on domain   4:     .21156 elapsed seconds
Timing for main: time 2016-02-05_21:50:40 on domain   2:    1.67092 elapsed seconds
Timing for main: time 2016-02-05_21:50:53 on domain   3:     .19764 elapsed seconds
Timing for main: time 2016-02-05_21:51:06 on domain   3:     .23212 elapsed seconds
Timing for main: time 2016-02-05_21:51:20 on domain   3:     .20028 elapsed seconds
Timing for main: time 2016-02-05_21:51:00 on domain   4:     .21587 elapsed seconds
Timing for main: time 2016-02-05_21:51:20 on domain   4:     .21192 elapsed seconds
Timing for main: time 2016-02-05_21:51:20 on domain   2:    1.74009 elapsed seconds
Timing for main: time 2016-02-05_21:51:33 on domain   3:     .19388 elapsed seconds
Timing for main: time 2016-02-05_21:51:46 on domain   3:     .17968 elapsed seconds
Timing for main: time 2016-02-05_21:52:00 on domain   3:     .17971 elapsed seconds
Timing for main: time 2016-02-05_21:51:40 on domain   4:     .21576 elapsed seconds
Timing for main: time 2016-02-05_21:52:00 on domain   4:     .21187 elapsed seconds
Timing for main: time 2016-02-05_21:52:00 on domain   2:    1.67200 elapsed seconds
Timing for main: time 2016-02-05_21:52:00 on domain   1:    5.44906 elapsed seconds
Timing for main: time 2016-02-05_21:52:13 on domain   3:     .19529 elapsed seconds
Timing for main: time 2016-02-05_21:52:26 on domain   3:     .17928 elapsed seconds
Timing for main: time 2016-02-05_21:52:40 on domain   3:     .17972 elapsed seconds
Timing for main: time 2016-02-05_21:52:20 on domain   4:     .21754 elapsed seconds
Timing for main: time 2016-02-05_21:52:40 on domain   4:     .21038 elapsed seconds
Timing for main: time 2016-02-05_21:52:40 on domain   2:    1.66917 elapsed seconds
Timing for main: time 2016-02-05_21:52:53 on domain   3:     .20188 elapsed seconds
Timing for main: time 2016-02-05_21:53:06 on domain   3:     .17948 elapsed seconds
Timing for main: time 2016-02-05_21:53:20 on domain   3:     .17998 elapsed seconds
Timing for main: time 2016-02-05_21:53:00 on domain   4:     .21572 elapsed seconds
Timing for main: time 2016-02-05_21:53:20 on domain   4:     .21211 elapsed seconds
Timing for main: time 2016-02-05_21:53:20 on domain   2:    1.67041 elapsed seconds
Timing for main: time 2016-02-05_21:53:33 on domain   3:     .19419 elapsed seconds
Timing for main: time 2016-02-05_21:53:46 on domain   3:     .18035 elapsed seconds
Timing for main: time 2016-02-05_21:54:00 on domain   3:     .17987 elapsed seconds
Timing for main: time 2016-02-05_21:53:40 on domain   4:     .21598 elapsed seconds
Timing for main: time 2016-02-05_21:54:00 on domain   4:     .21209 elapsed seconds
Timing for main: time 2016-02-05_21:54:00 on domain   2:    1.66334 elapsed seconds
Timing for main: time 2016-02-05_21:54:00 on domain   1:    5.37697 elapsed seconds
Timing for main: time 2016-02-05_21:54:13 on domain   3:     .19404 elapsed seconds
Timing for main: time 2016-02-05_21:54:26 on domain   3:     .17962 elapsed seconds
Timing for main: time 2016-02-05_21:54:40 on domain   3:     .18005 elapsed seconds
Timing for main: time 2016-02-05_21:54:20 on domain   4:     .21618 elapsed seconds
Timing for main: time 2016-02-05_21:54:40 on domain   4:     .21206 elapsed seconds
Timing for main: time 2016-02-05_21:54:40 on domain   2:    1.66869 elapsed seconds
Timing for main: time 2016-02-05_21:54:53 on domain   3:     .19390 elapsed seconds
Timing for main: time 2016-02-05_21:55:06 on domain   3:     .17934 elapsed seconds
Timing for main: time 2016-02-05_21:55:20 on domain   3:     .17959 elapsed seconds
Timing for main: time 2016-02-05_21:55:00 on domain   4:     .31112 elapsed seconds
Timing for main: time 2016-02-05_21:55:20 on domain   4:     .21231 elapsed seconds
Timing for main: time 2016-02-05_21:55:20 on domain   2:    1.75725 elapsed seconds
Timing for main: time 2016-02-05_21:55:33 on domain   3:     .19561 elapsed seconds
Timing for main: time 2016-02-05_21:55:46 on domain   3:     .18101 elapsed seconds
Timing for main: time 2016-02-05_21:56:00 on domain   3:     .17968 elapsed seconds
Timing for main: time 2016-02-05_21:55:40 on domain   4:     .21592 elapsed seconds
Timing for main: time 2016-02-05_21:56:00 on domain   4:     .21178 elapsed seconds
Timing for main: time 2016-02-05_21:56:00 on domain   2:    1.66492 elapsed seconds
Timing for main: time 2016-02-05_21:56:00 on domain   1:    5.45732 elapsed seconds
Timing for main: time 2016-02-05_21:56:13 on domain   3:     .19407 elapsed seconds
Timing for main: time 2016-02-05_21:56:26 on domain   3:     .17941 elapsed seconds
Timing for main: time 2016-02-05_21:56:40 on domain   3:     .18043 elapsed seconds
Timing for main: time 2016-02-05_21:56:20 on domain   4:     .21591 elapsed seconds
Timing for main: time 2016-02-05_21:56:40 on domain   4:     .21165 elapsed seconds
Timing for main: time 2016-02-05_21:56:40 on domain   2:    1.66832 elapsed seconds
Timing for main: time 2016-02-05_21:56:53 on domain   3:     .19409 elapsed seconds
Timing for main: time 2016-02-05_21:57:06 on domain   3:     .17941 elapsed seconds
Timing for main: time 2016-02-05_21:57:20 on domain   3:     .18007 elapsed seconds
Timing for main: time 2016-02-05_21:57:00 on domain   4:     .21612 elapsed seconds
Timing for main: time 2016-02-05_21:57:20 on domain   4:     .21364 elapsed seconds
Timing for main: time 2016-02-05_21:57:20 on domain   2:    1.67435 elapsed seconds
Timing for main: time 2016-02-05_21:57:33 on domain   3:     .19402 elapsed seconds
Timing for main: time 2016-02-05_21:57:46 on domain   3:     .18360 elapsed seconds
Timing for main: time 2016-02-05_21:58:00 on domain   3:     .18853 elapsed seconds
Timing for main: time 2016-02-05_21:57:40 on domain   4:     .21665 elapsed seconds
Timing for main: time 2016-02-05_21:58:00 on domain   4:     .21126 elapsed seconds
Timing for main: time 2016-02-05_21:58:00 on domain   2:    1.67566 elapsed seconds
Timing for main: time 2016-02-05_21:58:00 on domain   1:    5.38450 elapsed seconds
  photolysis_driver: called for domain  1
Timing for main: time 2016-02-05_21:58:13 on domain   3:     .19385 elapsed seconds
Timing for main: time 2016-02-05_21:58:26 on domain   3:     .17963 elapsed seconds
Timing for main: time 2016-02-05_21:58:40 on domain   3:     .18065 elapsed seconds
Timing for main: time 2016-02-05_21:58:20 on domain   4:     .21584 elapsed seconds
Timing for main: time 2016-02-05_21:58:40 on domain   4:     .21228 elapsed seconds
Timing for main: time 2016-02-05_21:58:40 on domain   2:    1.66956 elapsed seconds
Timing for main: time 2016-02-05_21:58:53 on domain   3:     .19413 elapsed seconds
Timing for main: time 2016-02-05_21:59:06 on domain   3:     .17941 elapsed seconds
Timing for main: time 2016-02-05_21:59:20 on domain   3:     .18096 elapsed seconds
Timing for main: time 2016-02-05_21:59:00 on domain   4:     .21578 elapsed seconds
Timing for main: time 2016-02-05_21:59:20 on domain   4:     .21228 elapsed seconds
Timing for main: time 2016-02-05_21:59:20 on domain   2:    1.66148 elapsed seconds
  photolysis_driver: called for domain  2
Timing for main: time 2016-02-05_21:59:33 on domain   3:     .19432 elapsed seconds
Timing for main: time 2016-02-05_21:59:46 on domain   3:     .17960 elapsed seconds
  photolysis_driver: called for domain  3
Timing for main: time 2016-02-05_22:00:00 on domain   3:    1.04446 elapsed seconds
Timing for Writing wrfout_d03_2016-02-05_22:00:00 for domain        3:    1.70836 elapsed seconds
Timing for main: time 2016-02-05_21:59:40 on domain   4:     .25592 elapsed seconds
  photolysis_driver: called for domain  4
Timing for main: time 2016-02-05_22:00:00 on domain   4:    1.26920 elapsed seconds
Timing for Writing wrfout_d04_2016-02-05_22:00:00 for domain        4:    1.90181 elapsed seconds
Timing for main: time 2016-02-05_22:00:00 on domain   2:    8.48194 elapsed seconds
Timing for Writing wrfout_d02_2016-02-05_22:00:00 for domain        2:    2.75126 elapsed seconds
Timing for main: time 2016-02-05_22:00:00 on domain   1:   15.65176 elapsed seconds
Timing for Writing wrfout_d01_2016-02-05_22:00:00 for domain        1:    2.35133 elapsed seconds
 d01 2016-02-05_22:00:00 wrf: SUCCESS COMPLETE WRF
