taskid: 0 hostname: p10a51.pbm.ihost.com
  Ntasks in X  10 , ntasks in Y  12
 Setting blank km_opt entries to domain #1 values.
  --> The km_opt entry in the namelist.input is now max_domains.
 Setting blank diff_opt entries to domain #1 values.
  --> The diff_opt entry in the namelist.input is now max_domains.
 --- WARNING: traj_opt is zero, but num_traj is not zero; setting num_traj to zero.
 --- NOTE: hypsometric_opt is 2, setting adjust_heights = F
 --- NOTE: sst_update is 0, setting io_form_auxinput4 = 0 and auxinput4_interval = 0 for all domains
 --- NOTE: sst_update is 0, setting io_form_auxinput4 = 0 and auxinput4_interval = 0 for all domains
 --- NOTE: sst_update is 0, setting io_form_auxinput4 = 0 and auxinput4_interval = 0 for all domains
 --- NOTE: sst_update is 0, setting io_form_auxinput4 = 0 and auxinput4_interval = 0 for all domains
 --- NOTE: grid_fdda is 0 for domain      1, setting gfdda interval and ending time to 0 for that domain.
 --- NOTE: both grid_sfdda and pxlsm_soil_nudge are 0 for domain      1, setting sgfdda interval and ending time to 0 for that domain.
 --- NOTE: obs_nudge_opt is 0 for domain      1, setting obs nudging interval and ending time to 0 for that domain.
 --- NOTE: grid_fdda is 0 for domain      2, setting gfdda interval and ending time to 0 for that domain.
 --- NOTE: both grid_sfdda and pxlsm_soil_nudge are 0 for domain      2, setting sgfdda interval and ending time to 0 for that domain.
 --- NOTE: obs_nudge_opt is 0 for domain      2, setting obs nudging interval and ending time to 0 for that domain.
 --- NOTE: grid_fdda is 0 for domain      3, setting gfdda interval and ending time to 0 for that domain.
 --- NOTE: both grid_sfdda and pxlsm_soil_nudge are 0 for domain      3, setting sgfdda interval and ending time to 0 for that domain.
 --- NOTE: obs_nudge_opt is 0 for domain      3, setting obs nudging interval and ending time to 0 for that domain.
 --- NOTE: grid_fdda is 0 for domain      4, setting gfdda interval and ending time to 0 for that domain.
 --- NOTE: both grid_sfdda and pxlsm_soil_nudge are 0 for domain      4, setting sgfdda interval and ending time to 0 for that domain.
 --- NOTE: obs_nudge_opt is 0 for domain      4, setting obs nudging interval and ending time to 0 for that domain.
 bl_pbl_physics /= 4, implies mfshconv must be 0, resetting
 --- NOTE: num_soil_layers has been set to      4
 WRF V3.6 MODEL
  *************************************
  Parent domain
  ids,ide,jds,jde  1 271 1 181
  ims,ime,jms,jme  -4 34 -4 22
  ips,ipe,jps,jpe  1 27 1 15
  *************************************
 DYNAMICS OPTION: Eulerian Mass Coordinate
    alloc_space_field: domain  1 ,  106461056  bytes allocated
   med_initialdata_input: calling input_input
Timing for processing wrfinput file (stream 0) for domain        1:    5.07977 elapsed seconds
 INPUT LandUse = "USGS"
  LANDUSE TYPE = "USGS" FOUND 33  CATEGORIES 2  SEASONS WATER CATEGORY =  16  SNOW CATEGORY =  24
 INITIALIZE THREE Noah LSM RELATED TABLES
  LANDUSE TYPE = USGS FOUND 27  CATEGORIES
  INPUT SOIL TEXTURE CLASSIFICATION = STAS
  SOIL TEXTURE CLASSIFICATION = STAS FOUND 19  CATEGORIES
 *********************************************************************
 *             PROGRAM:WRF/CHEM V3.6 MODEL
 *                                                                   *
 *    PLEASE REPORT ANY BUGS TO WRF/CHEM HELP at                     *
 *                                                                   *
 *              wrfchemhelp.gsd@noaa.gov                             *
 *                                                                   *
 *********************************************************************
 WARNING: dust option 1 currently works only with the GOCART aerosol option.
 WARNING: sea salt option 1 currently works only with the GOCART aerosol option.
  *************************************
  Nesting domain
  ids,ide,jds,jde  1 361 1 253
  ims,ime,jms,jme  -4 48 -4 33
  ips,ipe,jps,jpe  1 36 1 21
  INTERMEDIATE domain
  ids,ide,jds,jde  74 199 47 136
  ims,ime,jms,jme  69 97 42 65
  ips,ipe,jps,jpe  72 87 45 55
  *************************************
 d01 2016-02-05_12:00:00  alloc_space_field: domain  2 ,  198353180  bytes allocated
 d01 2016-02-05_12:00:00  alloc_space_field: domain  2 ,  8766816  bytes allocated
 d01 2016-02-05_12:00:00 *** Initializing nest domain # 2 from an input file. ***
 d01 2016-02-05_12:00:00 med_initialdata_input: calling input_input
Timing for processing wrfinput file (stream 0) for domain        2:    8.08798 elapsed seconds
 INPUT LandUse = "USGS"
  LANDUSE TYPE = "USGS" FOUND 33  CATEGORIES 2  SEASONS WATER CATEGORY =  16  SNOW CATEGORY =  24
 INITIALIZE THREE Noah LSM RELATED TABLES
  LANDUSE TYPE = USGS FOUND 27  CATEGORIES
  INPUT SOIL TEXTURE CLASSIFICATION = STAS
  SOIL TEXTURE CLASSIFICATION = STAS FOUND 19  CATEGORIES
 *********************************************************************
 *             PROGRAM:WRF/CHEM V3.6 MODEL
 *                                                                   *
 *    PLEASE REPORT ANY BUGS TO WRF/CHEM HELP at                     *
 *                                                                   *
 *              wrfchemhelp.gsd@noaa.gov                             *
 *                                                                   *
 *********************************************************************
 WARNING: dust option 1 currently works only with the GOCART aerosol option.
 WARNING: sea salt option 1 currently works only with the GOCART aerosol option.
 INPUT LandUse = "USGS"
  LANDUSE TYPE = "USGS" FOUND 33  CATEGORIES 2  SEASONS WATER CATEGORY =  16  SNOW CATEGORY =  24
 INITIALIZE THREE Noah LSM RELATED TABLES
  LANDUSE TYPE = USGS FOUND 27  CATEGORIES
  INPUT SOIL TEXTURE CLASSIFICATION = STAS
  SOIL TEXTURE CLASSIFICATION = STAS FOUND 19  CATEGORIES
 *********************************************************************
 *             PROGRAM:WRF/CHEM V3.6 MODEL
 *                                                                   *
 *    PLEASE REPORT ANY BUGS TO WRF/CHEM HELP at                     *
 *                                                                   *
 *              wrfchemhelp.gsd@noaa.gov                             *
 *                                                                   *
 *********************************************************************
 WARNING: dust option 1 currently works only with the GOCART aerosol option.
 WARNING: sea salt option 1 currently works only with the GOCART aerosol option.
 INPUT LandUse = "USGS"
  LANDUSE TYPE = "USGS" FOUND 33  CATEGORIES 2  SEASONS WATER CATEGORY =  16  SNOW CATEGORY =  24
 INITIALIZE THREE Noah LSM RELATED TABLES
  LANDUSE TYPE = USGS FOUND 27  CATEGORIES
  INPUT SOIL TEXTURE CLASSIFICATION = STAS
  SOIL TEXTURE CLASSIFICATION = STAS FOUND 19  CATEGORIES
 *********************************************************************
 *             PROGRAM:WRF/CHEM V3.6 MODEL
 *                                                                   *
 *    PLEASE REPORT ANY BUGS TO WRF/CHEM HELP at                     *
 *                                                                   *
 *              wrfchemhelp.gsd@noaa.gov                             *
 *                                                                   *
 *********************************************************************
 WARNING: dust option 1 currently works only with the GOCART aerosol option.
 WARNING: sea salt option 1 currently works only with the GOCART aerosol option.
Timing for Writing wrfout_d01_2016-02-05_12:00:00 for domain        1:    1.74980 elapsed seconds
  mediation_integrate: med_read_wrf_chem_emissions: Open file wrfchemi_12z_d01
  HOURLY EMISSIONS UPDATE TIME         .0        .0
 mediation_integrate: med_read_wrf_chem_emissions: Read emissions for time 2016-02-05_12:00:00
 **WARNING** Time in input file not being checked **WARNING**
Timing for processing lateral boundary for domain        1:    3.68975 elapsed seconds
  Tile Strategy is not specified. Assuming 1D-Y
 WRF TILE   1 IS      1 IE     27 JS      1 JE     15
 WRF NUMBER OF TILES =   1
  photolysis_driver: called for domain  1
  *************************************
  Nesting domain
  ids,ide,jds,jde  1 307 1 241
  ims,ime,jms,jme  -4 42 -4 30
  ips,ipe,jps,jpe  1 31 1 20
  INTERMEDIATE domain
  ids,ide,jds,jde  124 231 35 120
  ims,ime,jms,jme  119 145 30 53
  ips,ipe,jps,jpe  122 135 33 43
  *************************************
 d02 2016-02-05_12:00:00  alloc_space_field: domain  3 ,  163209716  bytes allocated
 d02 2016-02-05_12:00:00  alloc_space_field: domain  3 ,  8162208  bytes allocated
 d02 2016-02-05_12:00:00 *** Initializing nest domain # 3 from an input file. ***
 d02 2016-02-05_12:00:00 med_initialdata_input: calling input_input
Timing for processing wrfinput file (stream 0) for domain        3:    6.96116 elapsed seconds
 INPUT LandUse = "USGS"
  LANDUSE TYPE = "USGS" FOUND 33  CATEGORIES 2  SEASONS WATER CATEGORY =  16  SNOW CATEGORY =  24
 INITIALIZE THREE Noah LSM RELATED TABLES
  LANDUSE TYPE = USGS FOUND 27  CATEGORIES
  INPUT SOIL TEXTURE CLASSIFICATION = STAS
  SOIL TEXTURE CLASSIFICATION = STAS FOUND 19  CATEGORIES
 *********************************************************************
 *             PROGRAM:WRF/CHEM V3.6 MODEL
 *                                                                   *
 *    PLEASE REPORT ANY BUGS TO WRF/CHEM HELP at                     *
 *                                                                   *
 *              wrfchemhelp.gsd@noaa.gov                             *
 *                                                                   *
 *********************************************************************
 WARNING: dust option 1 currently works only with the GOCART aerosol option.
 WARNING: sea salt option 1 currently works only with the GOCART aerosol option.
 INPUT LandUse = "USGS"
  LANDUSE TYPE = "USGS" FOUND 33  CATEGORIES 2  SEASONS WATER CATEGORY =  16  SNOW CATEGORY =  24
 INITIALIZE THREE Noah LSM RELATED TABLES
  LANDUSE TYPE = USGS FOUND 27  CATEGORIES
  INPUT SOIL TEXTURE CLASSIFICATION = STAS
  SOIL TEXTURE CLASSIFICATION = STAS FOUND 19  CATEGORIES
 *********************************************************************
 *             PROGRAM:WRF/CHEM V3.6 MODEL
 *                                                                   *
 *    PLEASE REPORT ANY BUGS TO WRF/CHEM HELP at                     *
 *                                                                   *
 *              wrfchemhelp.gsd@noaa.gov                             *
 *                                                                   *
 *********************************************************************
 WARNING: dust option 1 currently works only with the GOCART aerosol option.
 WARNING: sea salt option 1 currently works only with the GOCART aerosol option.
 INPUT LandUse = "USGS"
  LANDUSE TYPE = "USGS" FOUND 33  CATEGORIES 2  SEASONS WATER CATEGORY =  16  SNOW CATEGORY =  24
 INITIALIZE THREE Noah LSM RELATED TABLES
  LANDUSE TYPE = USGS FOUND 27  CATEGORIES
  INPUT SOIL TEXTURE CLASSIFICATION = STAS
  SOIL TEXTURE CLASSIFICATION = STAS FOUND 19  CATEGORIES
 *********************************************************************
 *             PROGRAM:WRF/CHEM V3.6 MODEL
 *                                                                   *
 *    PLEASE REPORT ANY BUGS TO WRF/CHEM HELP at                     *
 *                                                                   *
 *              wrfchemhelp.gsd@noaa.gov                             *
 *                                                                   *
 *********************************************************************
 WARNING: dust option 1 currently works only with the GOCART aerosol option.
 WARNING: sea salt option 1 currently works only with the GOCART aerosol option.
  *************************************
  Nesting domain
  ids,ide,jds,jde  1 217 1 388
  ims,ime,jms,jme  -4 33 -4 45
  ips,ipe,jps,jpe  1 22 1 33
  INTERMEDIATE domain
  ids,ide,jds,jde  225 302 83 217
  ims,ime,jms,jme  220 243 78 105
  ips,ipe,jps,jpe  223 233 81 95
  *************************************
 d02 2016-02-05_12:00:00  alloc_space_field: domain  4 ,  187462100  bytes allocated
 d02 2016-02-05_12:00:00  alloc_space_field: domain  4 ,  8464512  bytes allocated
 d02 2016-02-05_12:00:00 *** Initializing nest domain # 4 from an input file. ***
 d02 2016-02-05_12:00:00 med_initialdata_input: calling input_input
Timing for processing wrfinput file (stream 0) for domain        4:    8.30910 elapsed seconds
 INPUT LandUse = "USGS"
  LANDUSE TYPE = "USGS" FOUND 33  CATEGORIES 2  SEASONS WATER CATEGORY =  16  SNOW CATEGORY =  24
 INITIALIZE THREE Noah LSM RELATED TABLES
  LANDUSE TYPE = USGS FOUND 27  CATEGORIES
  INPUT SOIL TEXTURE CLASSIFICATION = STAS
  SOIL TEXTURE CLASSIFICATION = STAS FOUND 19  CATEGORIES
 *********************************************************************
 *             PROGRAM:WRF/CHEM V3.6 MODEL
 *                                                                   *
 *    PLEASE REPORT ANY BUGS TO WRF/CHEM HELP at                     *
 *                                                                   *
 *              wrfchemhelp.gsd@noaa.gov                             *
 *                                                                   *
 *********************************************************************
 WARNING: dust option 1 currently works only with the GOCART aerosol option.
 WARNING: sea salt option 1 currently works only with the GOCART aerosol option.
 INPUT LandUse = "USGS"
  LANDUSE TYPE = "USGS" FOUND 33  CATEGORIES 2  SEASONS WATER CATEGORY =  16  SNOW CATEGORY =  24
 INITIALIZE THREE Noah LSM RELATED TABLES
  LANDUSE TYPE = USGS FOUND 27  CATEGORIES
  INPUT SOIL TEXTURE CLASSIFICATION = STAS
  SOIL TEXTURE CLASSIFICATION = STAS FOUND 19  CATEGORIES
 *********************************************************************
 *             PROGRAM:WRF/CHEM V3.6 MODEL
 *                                                                   *
 *    PLEASE REPORT ANY BUGS TO WRF/CHEM HELP at                     *
 *                                                                   *
 *              wrfchemhelp.gsd@noaa.gov                             *
 *                                                                   *
 *********************************************************************
 WARNING: dust option 1 currently works only with the GOCART aerosol option.
 WARNING: sea salt option 1 currently works only with the GOCART aerosol option.
 INPUT LandUse = "USGS"
  LANDUSE TYPE = "USGS" FOUND 33  CATEGORIES 2  SEASONS WATER CATEGORY =  16  SNOW CATEGORY =  24
 INITIALIZE THREE Noah LSM RELATED TABLES
  LANDUSE TYPE = USGS FOUND 27  CATEGORIES
  INPUT SOIL TEXTURE CLASSIFICATION = STAS
  SOIL TEXTURE CLASSIFICATION = STAS FOUND 19  CATEGORIES
 *********************************************************************
 *             PROGRAM:WRF/CHEM V3.6 MODEL
 *                                                                   *
 *    PLEASE REPORT ANY BUGS TO WRF/CHEM HELP at                     *
 *                                                                   *
 *              wrfchemhelp.gsd@noaa.gov                             *
 *                                                                   *
 *********************************************************************
 WARNING: dust option 1 currently works only with the GOCART aerosol option.
 WARNING: sea salt option 1 currently works only with the GOCART aerosol option.
Timing for Writing wrfout_d02_2016-02-05_12:00:00 for domain        2:    2.59284 elapsed seconds
  mediation_integrate: med_read_wrf_chem_emissions: Open file wrfchemi_12z_d02
  HOURLY EMISSIONS UPDATE TIME         .0        .0
 mediation_integrate: med_read_wrf_chem_emissions: Read emissions for time 2016-02-05_12:00:00
 **WARNING** Time in input file not being checked **WARNING**
  Tile Strategy is not specified. Assuming 1D-Y
 WRF TILE   1 IS      1 IE     36 JS      1 JE     21
 WRF NUMBER OF TILES =   1
  photolysis_driver: called for domain  2
Timing for Writing wrfout_d03_2016-02-05_12:00:00 for domain        3:    2.22299 elapsed seconds
  mediation_integrate: med_read_wrf_chem_emissions: Open file wrfchemi_12z_d03
  HOURLY EMISSIONS UPDATE TIME         .0        .0
 mediation_integrate: med_read_wrf_chem_emissions: Read emissions for time 2016-02-05_12:00:00
 **WARNING** Time in input file not being checked **WARNING**
  Tile Strategy is not specified. Assuming 1D-Y
 WRF TILE   1 IS      1 IE     31 JS      1 JE     20
 WRF NUMBER OF TILES =   1
  photolysis_driver: called for domain  3
Timing for main: time 2016-02-05_12:00:13 on domain   3:    7.06085 elapsed seconds
Timing for main: time 2016-02-05_12:00:26 on domain   3:     .31513 elapsed seconds
Timing for main: time 2016-02-05_12:00:40 on domain   3:     .37516 elapsed seconds
Timing for Writing wrfout_d04_2016-02-05_12:00:00 for domain        4:    2.44637 elapsed seconds
  mediation_integrate: med_read_wrf_chem_emissions: Open file wrfchemi_12z_d04
  HOURLY EMISSIONS UPDATE TIME         .0        .0
 mediation_integrate: med_read_wrf_chem_emissions: Read emissions for time 2016-02-05_12:00:00
 **WARNING** Time in input file not being checked **WARNING**
  Tile Strategy is not specified. Assuming 1D-Y
 WRF TILE   1 IS      1 IE     22 JS      1 JE     33
 WRF NUMBER OF TILES =   1
  photolysis_driver: called for domain  4
Timing for main: time 2016-02-05_12:00:20 on domain   4:    6.68253 elapsed seconds
Timing for main: time 2016-02-05_12:00:40 on domain   4:     .39930 elapsed seconds
Timing for main: time 2016-02-05_12:00:40 on domain   2:   44.70547 elapsed seconds
Timing for main: time 2016-02-05_12:00:53 on domain   3:     .39118 elapsed seconds
Timing for main: time 2016-02-05_12:01:06 on domain   3:     .37389 elapsed seconds
Timing for main: time 2016-02-05_12:01:20 on domain   3:     .37175 elapsed seconds
Timing for main: time 2016-02-05_12:01:00 on domain   4:     .45583 elapsed seconds
Timing for main: time 2016-02-05_12:01:20 on domain   4:     .44086 elapsed seconds
Timing for main: time 2016-02-05_12:01:20 on domain   2:    3.16896 elapsed seconds
Timing for main: time 2016-02-05_12:01:33 on domain   3:     .39043 elapsed seconds
Timing for main: time 2016-02-05_12:01:46 on domain   3:     .37237 elapsed seconds
Timing for main: time 2016-02-05_12:02:00 on domain   3:     .37191 elapsed seconds
Timing for main: time 2016-02-05_12:01:40 on domain   4:     .45517 elapsed seconds
Timing for main: time 2016-02-05_12:02:00 on domain   4:     .44140 elapsed seconds
Timing for main: time 2016-02-05_12:02:00 on domain   2:    3.24276 elapsed seconds
Timing for main: time 2016-02-05_12:02:00 on domain   1:   72.62006 elapsed seconds
Timing for main: time 2016-02-05_12:02:13 on domain   3:     .39214 elapsed seconds
Timing for main: time 2016-02-05_12:02:26 on domain   3:     .37136 elapsed seconds
Timing for main: time 2016-02-05_12:02:40 on domain   3:     .37482 elapsed seconds
Timing for main: time 2016-02-05_12:02:20 on domain   4:     .45254 elapsed seconds
Timing for main: time 2016-02-05_12:02:40 on domain   4:     .44421 elapsed seconds
Timing for main: time 2016-02-05_12:02:40 on domain   2:    3.27217 elapsed seconds
Timing for main: time 2016-02-05_12:02:53 on domain   3:     .38928 elapsed seconds
Timing for main: time 2016-02-05_12:03:06 on domain   3:     .37182 elapsed seconds
Timing for main: time 2016-02-05_12:03:20 on domain   3:     .37305 elapsed seconds
Timing for main: time 2016-02-05_12:03:00 on domain   4:     .45509 elapsed seconds
Timing for main: time 2016-02-05_12:03:20 on domain   4:     .44103 elapsed seconds
Timing for main: time 2016-02-05_12:03:20 on domain   2:    3.24004 elapsed seconds
Timing for main: time 2016-02-05_12:03:33 on domain   3:     .39014 elapsed seconds
Timing for main: time 2016-02-05_12:03:46 on domain   3:     .37149 elapsed seconds
Timing for main: time 2016-02-05_12:04:00 on domain   3:     .37223 elapsed seconds
Timing for main: time 2016-02-05_12:03:40 on domain   4:     .45847 elapsed seconds
Timing for main: time 2016-02-05_12:04:00 on domain   4:     .44394 elapsed seconds
Timing for main: time 2016-02-05_12:04:00 on domain   2:    3.25402 elapsed seconds
Timing for main: time 2016-02-05_12:04:00 on domain   1:   10.33462 elapsed seconds
Timing for main: time 2016-02-05_12:04:13 on domain   3:     .39291 elapsed seconds
Timing for main: time 2016-02-05_12:04:26 on domain   3:     .39535 elapsed seconds
Timing for main: time 2016-02-05_12:04:40 on domain   3:     .37157 elapsed seconds
Timing for main: time 2016-02-05_12:04:20 on domain   4:     .45735 elapsed seconds
Timing for main: time 2016-02-05_12:04:40 on domain   4:     .44202 elapsed seconds
Timing for main: time 2016-02-05_12:04:40 on domain   2:    3.29443 elapsed seconds
Timing for main: time 2016-02-05_12:04:53 on domain   3:     .39321 elapsed seconds
Timing for main: time 2016-02-05_12:05:06 on domain   3:     .38848 elapsed seconds
Timing for main: time 2016-02-05_12:05:20 on domain   3:     .36987 elapsed seconds
Timing for main: time 2016-02-05_12:05:00 on domain   4:     .50535 elapsed seconds
Timing for main: time 2016-02-05_12:05:20 on domain   4:     .53829 elapsed seconds
Timing for main: time 2016-02-05_12:05:20 on domain   2:    3.42298 elapsed seconds
Timing for main: time 2016-02-05_12:05:33 on domain   3:     .38727 elapsed seconds
Timing for main: time 2016-02-05_12:05:46 on domain   3:     .37291 elapsed seconds
Timing for main: time 2016-02-05_12:06:00 on domain   3:     .37677 elapsed seconds
Timing for main: time 2016-02-05_12:05:40 on domain   4:     .48466 elapsed seconds
Timing for main: time 2016-02-05_12:06:00 on domain   4:     .44136 elapsed seconds
Timing for main: time 2016-02-05_12:06:00 on domain   2:    3.27981 elapsed seconds
Timing for main: time 2016-02-05_12:06:00 on domain   1:   10.61393 elapsed seconds
Timing for main: time 2016-02-05_12:06:13 on domain   3:     .39267 elapsed seconds
Timing for main: time 2016-02-05_12:06:26 on domain   3:     .37264 elapsed seconds
Timing for main: time 2016-02-05_12:06:40 on domain   3:     .37157 elapsed seconds
Timing for main: time 2016-02-05_12:06:20 on domain   4:     .45742 elapsed seconds
Timing for main: time 2016-02-05_12:06:40 on domain   4:     .44192 elapsed seconds
Timing for main: time 2016-02-05_12:06:40 on domain   2:    3.27290 elapsed seconds
Timing for main: time 2016-02-05_12:06:53 on domain   3:     .38970 elapsed seconds
Timing for main: time 2016-02-05_12:07:06 on domain   3:     .37245 elapsed seconds
Timing for main: time 2016-02-05_12:07:20 on domain   3:     .37154 elapsed seconds
Timing for main: time 2016-02-05_12:07:00 on domain   4:     .45796 elapsed seconds
Timing for main: time 2016-02-05_12:07:20 on domain   4:     .44415 elapsed seconds
Timing for main: time 2016-02-05_12:07:20 on domain   2:    3.24807 elapsed seconds
Timing for main: time 2016-02-05_12:07:33 on domain   3:     .38977 elapsed seconds
Timing for main: time 2016-02-05_12:07:46 on domain   3:     .37111 elapsed seconds
Timing for main: time 2016-02-05_12:08:00 on domain   3:     .37240 elapsed seconds
Timing for main: time 2016-02-05_12:07:40 on domain   4:     .45779 elapsed seconds
Timing for main: time 2016-02-05_12:08:00 on domain   4:     .44426 elapsed seconds
Timing for main: time 2016-02-05_12:08:00 on domain   2:    3.24757 elapsed seconds
Timing for main: time 2016-02-05_12:08:00 on domain   1:   10.37859 elapsed seconds
Timing for main: time 2016-02-05_12:08:13 on domain   3:     .39167 elapsed seconds
Timing for main: time 2016-02-05_12:08:26 on domain   3:     .37145 elapsed seconds
Timing for main: time 2016-02-05_12:08:40 on domain   3:     .37147 elapsed seconds
Timing for main: time 2016-02-05_12:08:20 on domain   4:     .45742 elapsed seconds
Timing for main: time 2016-02-05_12:08:40 on domain   4:     .44431 elapsed seconds
Timing for main: time 2016-02-05_12:08:40 on domain   2:    3.27624 elapsed seconds
Timing for main: time 2016-02-05_12:08:53 on domain   3:     .39149 elapsed seconds
Timing for main: time 2016-02-05_12:09:06 on domain   3:     .37398 elapsed seconds
Timing for main: time 2016-02-05_12:09:20 on domain   3:     .37047 elapsed seconds
Timing for main: time 2016-02-05_12:09:00 on domain   4:     .46012 elapsed seconds
Timing for main: time 2016-02-05_12:09:20 on domain   4:     .44543 elapsed seconds
Timing for main: time 2016-02-05_12:09:20 on domain   2:    3.25469 elapsed seconds
Timing for main: time 2016-02-05_12:09:33 on domain   3:     .38924 elapsed seconds
Timing for main: time 2016-02-05_12:09:46 on domain   3:     .37413 elapsed seconds
Timing for main: time 2016-02-05_12:10:00 on domain   3:     .37063 elapsed seconds
Timing for main: time 2016-02-05_12:09:40 on domain   4:     .46004 elapsed seconds
Timing for main: time 2016-02-05_12:10:00 on domain   4:     .46336 elapsed seconds
Timing for main: time 2016-02-05_12:10:00 on domain   2:    3.33178 elapsed seconds
Timing for main: time 2016-02-05_12:10:00 on domain   1:   10.47381 elapsed seconds
Timing for main: time 2016-02-05_12:10:13 on domain   3:     .40925 elapsed seconds
Timing for main: time 2016-02-05_12:10:26 on domain   3:     .37030 elapsed seconds
Timing for main: time 2016-02-05_12:10:40 on domain   3:     .37306 elapsed seconds
Timing for main: time 2016-02-05_12:10:20 on domain   4:     .45835 elapsed seconds
Timing for main: time 2016-02-05_12:10:40 on domain   4:     .44600 elapsed seconds
Timing for main: time 2016-02-05_12:10:40 on domain   2:    3.31411 elapsed seconds
Timing for main: time 2016-02-05_12:10:53 on domain   3:     .39137 elapsed seconds
Timing for main: time 2016-02-05_12:11:06 on domain   3:     .37537 elapsed seconds
Timing for main: time 2016-02-05_12:11:20 on domain   3:     .37602 elapsed seconds
Timing for main: time 2016-02-05_12:11:00 on domain   4:     .45772 elapsed seconds
Timing for main: time 2016-02-05_12:11:20 on domain   4:     .44686 elapsed seconds
Timing for main: time 2016-02-05_12:11:20 on domain   2:    3.26051 elapsed seconds
Timing for main: time 2016-02-05_12:11:33 on domain   3:     .39542 elapsed seconds
Timing for main: time 2016-02-05_12:11:46 on domain   3:     .37216 elapsed seconds
Timing for main: time 2016-02-05_12:12:00 on domain   3:     .37311 elapsed seconds
Timing for main: time 2016-02-05_12:11:40 on domain   4:     .45775 elapsed seconds
Timing for main: time 2016-02-05_12:12:00 on domain   4:     .44564 elapsed seconds
Timing for main: time 2016-02-05_12:12:00 on domain   2:    3.25620 elapsed seconds
Timing for main: time 2016-02-05_12:12:00 on domain   1:   10.45285 elapsed seconds
Timing for main: time 2016-02-05_12:12:13 on domain   3:     .38930 elapsed seconds
Timing for main: time 2016-02-05_12:12:26 on domain   3:     .37707 elapsed seconds
Timing for main: time 2016-02-05_12:12:40 on domain   3:     .37259 elapsed seconds
Timing for main: time 2016-02-05_12:12:20 on domain   4:     .45924 elapsed seconds
Timing for main: time 2016-02-05_12:12:40 on domain   4:     .44743 elapsed seconds
Timing for main: time 2016-02-05_12:12:40 on domain   2:    3.28310 elapsed seconds
Timing for main: time 2016-02-05_12:12:53 on domain   3:     .39374 elapsed seconds
Timing for main: time 2016-02-05_12:13:06 on domain   3:     .37231 elapsed seconds
Timing for main: time 2016-02-05_12:13:20 on domain   3:     .37373 elapsed seconds
Timing for main: time 2016-02-05_12:13:00 on domain   4:     .45513 elapsed seconds
Timing for main: time 2016-02-05_12:13:20 on domain   4:     .44644 elapsed seconds
Timing for main: time 2016-02-05_12:13:20 on domain   2:    3.26007 elapsed seconds
Timing for main: time 2016-02-05_12:13:33 on domain   3:     .39145 elapsed seconds
Timing for main: time 2016-02-05_12:13:46 on domain   3:     .37373 elapsed seconds
Timing for main: time 2016-02-05_12:14:00 on domain   3:     .37457 elapsed seconds
Timing for main: time 2016-02-05_12:13:40 on domain   4:     .45878 elapsed seconds
Timing for main: time 2016-02-05_12:14:00 on domain   4:     .44529 elapsed seconds
Timing for main: time 2016-02-05_12:14:00 on domain   2:    3.25625 elapsed seconds
Timing for main: time 2016-02-05_12:14:00 on domain   1:   10.41023 elapsed seconds
Timing for main: time 2016-02-05_12:14:13 on domain   3:     .39251 elapsed seconds
Timing for main: time 2016-02-05_12:14:26 on domain   3:     .37097 elapsed seconds
Timing for main: time 2016-02-05_12:14:40 on domain   3:     .37183 elapsed seconds
Timing for main: time 2016-02-05_12:14:20 on domain   4:     .45896 elapsed seconds
Timing for main: time 2016-02-05_12:14:40 on domain   4:     .44595 elapsed seconds
Timing for main: time 2016-02-05_12:14:40 on domain   2:    3.28162 elapsed seconds
Timing for main: time 2016-02-05_12:14:53 on domain   3:     .39430 elapsed seconds
Timing for main: time 2016-02-05_12:15:06 on domain   3:     .37466 elapsed seconds
Timing for main: time 2016-02-05_12:15:20 on domain   3:     .38817 elapsed seconds
Timing for main: time 2016-02-05_12:15:00 on domain   4:     .47612 elapsed seconds
Timing for main: time 2016-02-05_12:15:20 on domain   4:     .44656 elapsed seconds
Timing for main: time 2016-02-05_12:15:20 on domain   2:    3.29442 elapsed seconds
Timing for main: time 2016-02-05_12:15:33 on domain   3:     .39364 elapsed seconds
Timing for main: time 2016-02-05_12:15:46 on domain   3:     .37289 elapsed seconds
Timing for main: time 2016-02-05_12:16:00 on domain   3:     .37217 elapsed seconds
Timing for main: time 2016-02-05_12:15:40 on domain   4:     .46249 elapsed seconds
Timing for main: time 2016-02-05_12:16:00 on domain   4:     .44557 elapsed seconds
Timing for main: time 2016-02-05_12:16:00 on domain   2:    3.28045 elapsed seconds
Timing for main: time 2016-02-05_12:16:00 on domain   1:   10.46719 elapsed seconds
Timing for main: time 2016-02-05_12:16:13 on domain   3:     .39334 elapsed seconds
Timing for main: time 2016-02-05_12:16:26 on domain   3:     .36843 elapsed seconds
Timing for main: time 2016-02-05_12:16:40 on domain   3:     .37363 elapsed seconds
Timing for main: time 2016-02-05_12:16:20 on domain   4:     .45976 elapsed seconds
Timing for main: time 2016-02-05_12:16:40 on domain   4:     .44667 elapsed seconds
Timing for main: time 2016-02-05_12:16:40 on domain   2:    3.28499 elapsed seconds
Timing for main: time 2016-02-05_12:16:53 on domain   3:     .39131 elapsed seconds
Timing for main: time 2016-02-05_12:17:06 on domain   3:     .37240 elapsed seconds
Timing for main: time 2016-02-05_12:17:20 on domain   3:     .37587 elapsed seconds
Timing for main: time 2016-02-05_12:17:00 on domain   4:     .45863 elapsed seconds
Timing for main: time 2016-02-05_12:17:20 on domain   4:     .44807 elapsed seconds
Timing for main: time 2016-02-05_12:17:20 on domain   2:    3.25880 elapsed seconds
Timing for main: time 2016-02-05_12:17:33 on domain   3:     .39174 elapsed seconds
Timing for main: time 2016-02-05_12:17:46 on domain   3:     .37405 elapsed seconds
Timing for main: time 2016-02-05_12:18:00 on domain   3:     .37127 elapsed seconds
Timing for main: time 2016-02-05_12:17:40 on domain   4:     .46076 elapsed seconds
Timing for main: time 2016-02-05_12:18:00 on domain   4:     .44641 elapsed seconds
Timing for main: time 2016-02-05_12:18:00 on domain   2:    3.26193 elapsed seconds
Timing for main: time 2016-02-05_12:18:00 on domain   1:   10.42532 elapsed seconds
Timing for main: time 2016-02-05_12:18:13 on domain   3:     .39550 elapsed seconds
Timing for main: time 2016-02-05_12:18:26 on domain   3:     .37362 elapsed seconds
Timing for main: time 2016-02-05_12:18:40 on domain   3:     .37036 elapsed seconds
Timing for main: time 2016-02-05_12:18:20 on domain   4:     .45805 elapsed seconds
Timing for main: time 2016-02-05_12:18:40 on domain   4:     .44484 elapsed seconds
Timing for main: time 2016-02-05_12:18:40 on domain   2:    3.28281 elapsed seconds
Timing for main: time 2016-02-05_12:18:53 on domain   3:     .39013 elapsed seconds
Timing for main: time 2016-02-05_12:19:06 on domain   3:     .37654 elapsed seconds
Timing for main: time 2016-02-05_12:19:20 on domain   3:     .37295 elapsed seconds
Timing for main: time 2016-02-05_12:19:00 on domain   4:     .45910 elapsed seconds
Timing for main: time 2016-02-05_12:19:20 on domain   4:     .44509 elapsed seconds
Timing for main: time 2016-02-05_12:19:20 on domain   2:    3.25612 elapsed seconds
Timing for main: time 2016-02-05_12:19:33 on domain   3:     .39287 elapsed seconds
Timing for main: time 2016-02-05_12:19:46 on domain   3:     .37266 elapsed seconds
Timing for main: time 2016-02-05_12:20:00 on domain   3:     .37363 elapsed seconds
Timing for main: time 2016-02-05_12:19:40 on domain   4:     .45855 elapsed seconds
Timing for main: time 2016-02-05_12:20:00 on domain   4:     .46408 elapsed seconds
Timing for main: time 2016-02-05_12:20:00 on domain   2:    3.27960 elapsed seconds
Timing for main: time 2016-02-05_12:20:00 on domain   1:   10.42841 elapsed seconds
Timing for main: time 2016-02-05_12:20:13 on domain   3:     .39750 elapsed seconds
Timing for main: time 2016-02-05_12:20:26 on domain   3:     .38718 elapsed seconds
Timing for main: time 2016-02-05_12:20:40 on domain   3:     .36995 elapsed seconds
Timing for main: time 2016-02-05_12:20:20 on domain   4:     .46041 elapsed seconds
Timing for main: time 2016-02-05_12:20:40 on domain   4:     .44688 elapsed seconds
Timing for main: time 2016-02-05_12:20:40 on domain   2:    3.30057 elapsed seconds
Timing for main: time 2016-02-05_12:20:53 on domain   3:     .39102 elapsed seconds
Timing for main: time 2016-02-05_12:21:06 on domain   3:     .37553 elapsed seconds
Timing for main: time 2016-02-05_12:21:20 on domain   3:     .37004 elapsed seconds
Timing for main: time 2016-02-05_12:21:00 on domain   4:     .46096 elapsed seconds
Timing for main: time 2016-02-05_12:21:20 on domain   4:     .44586 elapsed seconds
Timing for main: time 2016-02-05_12:21:20 on domain   2:    3.27642 elapsed seconds
Timing for main: time 2016-02-05_12:21:33 on domain   3:     .39311 elapsed seconds
Timing for main: time 2016-02-05_12:21:46 on domain   3:     .37734 elapsed seconds
Timing for main: time 2016-02-05_12:22:00 on domain   3:     .37201 elapsed seconds
Timing for main: time 2016-02-05_12:21:40 on domain   4:     .45993 elapsed seconds
Timing for main: time 2016-02-05_12:22:00 on domain   4:     .44505 elapsed seconds
Timing for main: time 2016-02-05_12:22:00 on domain   2:    3.25600 elapsed seconds
Timing for main: time 2016-02-05_12:22:00 on domain   1:   10.44365 elapsed seconds
Timing for main: time 2016-02-05_12:22:13 on domain   3:     .39301 elapsed seconds
Timing for main: time 2016-02-05_12:22:26 on domain   3:     .37140 elapsed seconds
Timing for main: time 2016-02-05_12:22:40 on domain   3:     .37383 elapsed seconds
Timing for main: time 2016-02-05_12:22:20 on domain   4:     .45861 elapsed seconds
Timing for main: time 2016-02-05_12:22:40 on domain   4:     .44248 elapsed seconds
Timing for main: time 2016-02-05_12:22:40 on domain   2:    3.27830 elapsed seconds
Timing for main: time 2016-02-05_12:22:53 on domain   3:     .39255 elapsed seconds
Timing for main: time 2016-02-05_12:23:06 on domain   3:     .37598 elapsed seconds
Timing for main: time 2016-02-05_12:23:20 on domain   3:     .37454 elapsed seconds
Timing for main: time 2016-02-05_12:23:00 on domain   4:     .45880 elapsed seconds
Timing for main: time 2016-02-05_12:23:20 on domain   4:     .44311 elapsed seconds
Timing for main: time 2016-02-05_12:23:20 on domain   2:    3.25009 elapsed seconds
Timing for main: time 2016-02-05_12:23:33 on domain   3:     .39172 elapsed seconds
Timing for main: time 2016-02-05_12:23:46 on domain   3:     .37196 elapsed seconds
Timing for main: time 2016-02-05_12:24:00 on domain   3:     .37026 elapsed seconds
Timing for main: time 2016-02-05_12:23:40 on domain   4:     .50345 elapsed seconds
Timing for main: time 2016-02-05_12:24:00 on domain   4:     .49601 elapsed seconds
Timing for main: time 2016-02-05_12:24:00 on domain   2:    3.34802 elapsed seconds
Timing for main: time 2016-02-05_12:24:00 on domain   1:   10.49411 elapsed seconds
Timing for main: time 2016-02-05_12:24:13 on domain   3:     .39105 elapsed seconds
Timing for main: time 2016-02-05_12:24:26 on domain   3:     .37405 elapsed seconds
Timing for main: time 2016-02-05_12:24:40 on domain   3:     .37211 elapsed seconds
Timing for main: time 2016-02-05_12:24:20 on domain   4:     .46163 elapsed seconds
Timing for main: time 2016-02-05_12:24:40 on domain   4:     .44020 elapsed seconds
Timing for main: time 2016-02-05_12:24:40 on domain   2:    3.27680 elapsed seconds
Timing for main: time 2016-02-05_12:24:53 on domain   3:     .39227 elapsed seconds
Timing for main: time 2016-02-05_12:25:06 on domain   3:     .37158 elapsed seconds
Timing for main: time 2016-02-05_12:25:20 on domain   3:     .37063 elapsed seconds
Timing for main: time 2016-02-05_12:25:00 on domain   4:     .48108 elapsed seconds
Timing for main: time 2016-02-05_12:25:20 on domain   4:     .44319 elapsed seconds
Timing for main: time 2016-02-05_12:25:20 on domain   2:    3.26848 elapsed seconds
Timing for main: time 2016-02-05_12:25:33 on domain   3:     .40765 elapsed seconds
Timing for main: time 2016-02-05_12:25:46 on domain   3:     .37160 elapsed seconds
Timing for main: time 2016-02-05_12:26:00 on domain   3:     .37363 elapsed seconds
Timing for main: time 2016-02-05_12:25:40 on domain   4:     .45772 elapsed seconds
Timing for main: time 2016-02-05_12:26:00 on domain   4:     .44774 elapsed seconds
Timing for main: time 2016-02-05_12:26:00 on domain   2:    3.27098 elapsed seconds
Timing for main: time 2016-02-05_12:26:00 on domain   1:   10.42284 elapsed seconds
Timing for main: time 2016-02-05_12:26:13 on domain   3:     .39218 elapsed seconds
Timing for main: time 2016-02-05_12:26:26 on domain   3:     .37172 elapsed seconds
Timing for main: time 2016-02-05_12:26:40 on domain   3:     .37536 elapsed seconds
Timing for main: time 2016-02-05_12:26:20 on domain   4:     .46138 elapsed seconds
Timing for main: time 2016-02-05_12:26:40 on domain   4:     .44198 elapsed seconds
Timing for main: time 2016-02-05_12:26:40 on domain   2:    3.29965 elapsed seconds
Timing for main: time 2016-02-05_12:26:53 on domain   3:     .39392 elapsed seconds
Timing for main: time 2016-02-05_12:27:06 on domain   3:     .37193 elapsed seconds
Timing for main: time 2016-02-05_12:27:20 on domain   3:     .37258 elapsed seconds
Timing for main: time 2016-02-05_12:27:00 on domain   4:     .45761 elapsed seconds
Timing for main: time 2016-02-05_12:27:20 on domain   4:     .44245 elapsed seconds
Timing for main: time 2016-02-05_12:27:20 on domain   2:    3.24855 elapsed seconds
Timing for main: time 2016-02-05_12:27:33 on domain   3:     .39449 elapsed seconds
Timing for main: time 2016-02-05_12:27:46 on domain   3:     .37271 elapsed seconds
Timing for main: time 2016-02-05_12:28:00 on domain   3:     .37291 elapsed seconds
Timing for main: time 2016-02-05_12:27:40 on domain   4:     .45648 elapsed seconds
Timing for main: time 2016-02-05_12:28:00 on domain   4:     .44436 elapsed seconds
Timing for main: time 2016-02-05_12:28:00 on domain   2:    3.25384 elapsed seconds
Timing for main: time 2016-02-05_12:28:00 on domain   1:   10.41307 elapsed seconds
  photolysis_driver: called for domain  1
Timing for main: time 2016-02-05_12:28:13 on domain   3:     .38618 elapsed seconds
Timing for main: time 2016-02-05_12:28:26 on domain   3:     .37092 elapsed seconds
Timing for main: time 2016-02-05_12:28:40 on domain   3:     .37550 elapsed seconds
Timing for main: time 2016-02-05_12:28:20 on domain   4:     .46133 elapsed seconds
Timing for main: time 2016-02-05_12:28:40 on domain   4:     .44700 elapsed seconds
Timing for main: time 2016-02-05_12:28:40 on domain   2:    3.28090 elapsed seconds
Timing for main: time 2016-02-05_12:28:53 on domain   3:     .39992 elapsed seconds
Timing for main: time 2016-02-05_12:29:06 on domain   3:     .47195 elapsed seconds
Timing for main: time 2016-02-05_12:29:20 on domain   3:     .37245 elapsed seconds
Timing for main: time 2016-02-05_12:29:00 on domain   4:     .46105 elapsed seconds
Timing for main: time 2016-02-05_12:29:20 on domain   4:     .44465 elapsed seconds
Timing for main: time 2016-02-05_12:29:20 on domain   2:    3.36315 elapsed seconds
  photolysis_driver: called for domain  2
Timing for main: time 2016-02-05_12:29:33 on domain   3:     .39011 elapsed seconds
Timing for main: time 2016-02-05_12:29:46 on domain   3:     .37171 elapsed seconds
  photolysis_driver: called for domain  3
Timing for main: time 2016-02-05_12:30:00 on domain   3:    1.97976 elapsed seconds
Timing for main: time 2016-02-05_12:29:40 on domain   4:     .45825 elapsed seconds
  photolysis_driver: called for domain  4
Timing for main: time 2016-02-05_12:30:00 on domain   4:    2.33966 elapsed seconds
Timing for main: time 2016-02-05_12:30:00 on domain   2:    8.72201 elapsed seconds
Timing for main: time 2016-02-05_12:30:00 on domain   1:   17.19983 elapsed seconds
Timing for main: time 2016-02-05_12:30:13 on domain   3:     .73136 elapsed seconds
Timing for main: time 2016-02-05_12:30:26 on domain   3:     .36766 elapsed seconds
Timing for main: time 2016-02-05_12:30:40 on domain   3:     .38490 elapsed seconds
Timing for main: time 2016-02-05_12:30:20 on domain   4:     .85436 elapsed seconds
Timing for main: time 2016-02-05_12:30:40 on domain   4:     .44280 elapsed seconds
Timing for main: time 2016-02-05_12:30:40 on domain   2:    4.44470 elapsed seconds
Timing for main: time 2016-02-05_12:30:53 on domain   3:     .38916 elapsed seconds
Timing for main: time 2016-02-05_12:31:06 on domain   3:     .37094 elapsed seconds
Timing for main: time 2016-02-05_12:31:20 on domain   3:     .37139 elapsed seconds
Timing for main: time 2016-02-05_12:31:00 on domain   4:     .45760 elapsed seconds
Timing for main: time 2016-02-05_12:31:20 on domain   4:     .44363 elapsed seconds
Timing for main: time 2016-02-05_12:31:20 on domain   2:    3.24476 elapsed seconds
Timing for main: time 2016-02-05_12:31:33 on domain   3:     .39240 elapsed seconds
Timing for main: time 2016-02-05_12:31:46 on domain   3:     .37078 elapsed seconds
Timing for main: time 2016-02-05_12:32:00 on domain   3:     .37073 elapsed seconds
Timing for main: time 2016-02-05_12:31:40 on domain   4:     .45974 elapsed seconds
Timing for main: time 2016-02-05_12:32:00 on domain   4:     .44445 elapsed seconds
Timing for main: time 2016-02-05_12:32:00 on domain   2:    3.30615 elapsed seconds
Timing for main: time 2016-02-05_12:32:00 on domain   1:   11.93248 elapsed seconds
Timing for main: time 2016-02-05_12:32:13 on domain   3:     .38870 elapsed seconds
Timing for main: time 2016-02-05_12:32:26 on domain   3:     .37225 elapsed seconds
Timing for main: time 2016-02-05_12:32:40 on domain   3:     .37198 elapsed seconds
Timing for main: time 2016-02-05_12:32:20 on domain   4:     .45524 elapsed seconds
Timing for main: time 2016-02-05_12:32:40 on domain   4:     .44424 elapsed seconds
Timing for main: time 2016-02-05_12:32:40 on domain   2:    3.26976 elapsed seconds
Timing for main: time 2016-02-05_12:32:53 on domain   3:     .38806 elapsed seconds
Timing for main: time 2016-02-05_12:33:06 on domain   3:     .36962 elapsed seconds
Timing for main: time 2016-02-05_12:33:20 on domain   3:     .37600 elapsed seconds
Timing for main: time 2016-02-05_12:33:00 on domain   4:     .45877 elapsed seconds
Timing for main: time 2016-02-05_12:33:20 on domain   4:     .44390 elapsed seconds
Timing for main: time 2016-02-05_12:33:20 on domain   2:    3.24973 elapsed seconds
Timing for main: time 2016-02-05_12:33:33 on domain   3:     .38815 elapsed seconds
Timing for main: time 2016-02-05_12:33:46 on domain   3:     .37373 elapsed seconds
Timing for main: time 2016-02-05_12:34:00 on domain   3:     .36897 elapsed seconds
Timing for main: time 2016-02-05_12:33:40 on domain   4:     .45552 elapsed seconds
Timing for main: time 2016-02-05_12:34:00 on domain   4:     .44456 elapsed seconds
Timing for main: time 2016-02-05_12:34:00 on domain   2:    3.24484 elapsed seconds
Timing for main: time 2016-02-05_12:34:00 on domain   1:   10.37355 elapsed seconds
Timing for main: time 2016-02-05_12:34:13 on domain   3:     .38848 elapsed seconds
Timing for main: time 2016-02-05_12:34:26 on domain   3:     .37083 elapsed seconds
Timing for main: time 2016-02-05_12:34:40 on domain   3:     .37202 elapsed seconds
Timing for main: time 2016-02-05_12:34:20 on domain   4:     .45691 elapsed seconds
Timing for main: time 2016-02-05_12:34:40 on domain   4:     .44294 elapsed seconds
Timing for main: time 2016-02-05_12:34:40 on domain   2:    3.27602 elapsed seconds
Timing for main: time 2016-02-05_12:34:53 on domain   3:     .39337 elapsed seconds
Timing for main: time 2016-02-05_12:35:06 on domain   3:     .37202 elapsed seconds
Timing for main: time 2016-02-05_12:35:20 on domain   3:     .37021 elapsed seconds
Timing for main: time 2016-02-05_12:35:00 on domain   4:     .47798 elapsed seconds
Timing for main: time 2016-02-05_12:35:20 on domain   4:     .44356 elapsed seconds
Timing for main: time 2016-02-05_12:35:20 on domain   2:    3.26515 elapsed seconds
Timing for main: time 2016-02-05_12:35:33 on domain   3:     .39174 elapsed seconds
Timing for main: time 2016-02-05_12:35:46 on domain   3:     .38636 elapsed seconds
Timing for main: time 2016-02-05_12:36:00 on domain   3:     .37035 elapsed seconds
Timing for main: time 2016-02-05_12:35:40 on domain   4:     .45874 elapsed seconds
Timing for main: time 2016-02-05_12:36:00 on domain   4:     .44375 elapsed seconds
Timing for main: time 2016-02-05_12:36:00 on domain   2:    3.26054 elapsed seconds
Timing for main: time 2016-02-05_12:36:00 on domain   1:   10.42259 elapsed seconds
Timing for main: time 2016-02-05_12:36:13 on domain   3:     .39092 elapsed seconds
Timing for main: time 2016-02-05_12:36:26 on domain   3:     .36850 elapsed seconds
Timing for main: time 2016-02-05_12:36:40 on domain   3:     .37250 elapsed seconds
Timing for main: time 2016-02-05_12:36:20 on domain   4:     .45976 elapsed seconds
Timing for main: time 2016-02-05_12:36:40 on domain   4:     .44364 elapsed seconds
Timing for main: time 2016-02-05_12:36:40 on domain   2:    3.27119 elapsed seconds
Timing for main: time 2016-02-05_12:36:53 on domain   3:     .39230 elapsed seconds
Timing for main: time 2016-02-05_12:37:06 on domain   3:     .37119 elapsed seconds
Timing for main: time 2016-02-05_12:37:20 on domain   3:     .36552 elapsed seconds
Timing for main: time 2016-02-05_12:37:00 on domain   4:     .45858 elapsed seconds
Timing for main: time 2016-02-05_12:37:20 on domain   4:     .44394 elapsed seconds
Timing for main: time 2016-02-05_12:37:20 on domain   2:    3.26261 elapsed seconds
Timing for main: time 2016-02-05_12:37:33 on domain   3:     .39012 elapsed seconds
Timing for main: time 2016-02-05_12:37:46 on domain   3:     .37007 elapsed seconds
Timing for main: time 2016-02-05_12:38:00 on domain   3:     .36959 elapsed seconds
Timing for main: time 2016-02-05_12:37:40 on domain   4:     .45885 elapsed seconds
Timing for main: time 2016-02-05_12:38:00 on domain   4:     .44246 elapsed seconds
Timing for main: time 2016-02-05_12:38:00 on domain   2:    3.24315 elapsed seconds
Timing for main: time 2016-02-05_12:38:00 on domain   1:   10.38750 elapsed seconds
Timing for main: time 2016-02-05_12:38:13 on domain   3:     .39127 elapsed seconds
Timing for main: time 2016-02-05_12:38:26 on domain   3:     .37121 elapsed seconds
Timing for main: time 2016-02-05_12:38:40 on domain   3:     .36911 elapsed seconds
Timing for main: time 2016-02-05_12:38:20 on domain   4:     .45566 elapsed seconds
Timing for main: time 2016-02-05_12:38:40 on domain   4:     .44502 elapsed seconds
Timing for main: time 2016-02-05_12:38:40 on domain   2:    3.26625 elapsed seconds
Timing for main: time 2016-02-05_12:38:53 on domain   3:     .38947 elapsed seconds
Timing for main: time 2016-02-05_12:39:06 on domain   3:     .36829 elapsed seconds
Timing for main: time 2016-02-05_12:39:20 on domain   3:     .37191 elapsed seconds
Timing for main: time 2016-02-05_12:39:00 on domain   4:     .45919 elapsed seconds
Timing for main: time 2016-02-05_12:39:20 on domain   4:     .44364 elapsed seconds
Timing for main: time 2016-02-05_12:39:20 on domain   2:    3.24908 elapsed seconds
Timing for main: time 2016-02-05_12:39:33 on domain   3:     .39074 elapsed seconds
Timing for main: time 2016-02-05_12:39:46 on domain   3:     .37143 elapsed seconds
Timing for main: time 2016-02-05_12:40:00 on domain   3:     .37008 elapsed seconds
Timing for main: time 2016-02-05_12:39:40 on domain   4:     .45621 elapsed seconds
Timing for main: time 2016-02-05_12:40:00 on domain   4:     .46086 elapsed seconds
Timing for main: time 2016-02-05_12:40:00 on domain   2:    3.26098 elapsed seconds
Timing for main: time 2016-02-05_12:40:00 on domain   1:   10.38697 elapsed seconds
Timing for main: time 2016-02-05_12:40:13 on domain   3:     .39317 elapsed seconds
Timing for main: time 2016-02-05_12:40:26 on domain   3:     .36951 elapsed seconds
Timing for main: time 2016-02-05_12:40:40 on domain   3:     .37184 elapsed seconds
Timing for main: time 2016-02-05_12:40:20 on domain   4:     .45507 elapsed seconds
Timing for main: time 2016-02-05_12:40:40 on domain   4:     .44442 elapsed seconds
Timing for main: time 2016-02-05_12:40:40 on domain   2:    3.27252 elapsed seconds
Timing for main: time 2016-02-05_12:40:53 on domain   3:     .40456 elapsed seconds
Timing for main: time 2016-02-05_12:41:06 on domain   3:     .37196 elapsed seconds
Timing for main: time 2016-02-05_12:41:20 on domain   3:     .36666 elapsed seconds
Timing for main: time 2016-02-05_12:41:00 on domain   4:     .45748 elapsed seconds
Timing for main: time 2016-02-05_12:41:20 on domain   4:     .44517 elapsed seconds
Timing for main: time 2016-02-05_12:41:20 on domain   2:    3.26034 elapsed seconds
Timing for main: time 2016-02-05_12:41:33 on domain   3:     .38900 elapsed seconds
Timing for main: time 2016-02-05_12:41:46 on domain   3:     .36929 elapsed seconds
Timing for main: time 2016-02-05_12:42:00 on domain   3:     .37218 elapsed seconds
Timing for main: time 2016-02-05_12:41:40 on domain   4:     .45658 elapsed seconds
Timing for main: time 2016-02-05_12:42:00 on domain   4:     .44320 elapsed seconds
Timing for main: time 2016-02-05_12:42:00 on domain   2:    3.24044 elapsed seconds
Timing for main: time 2016-02-05_12:42:00 on domain   1:   10.39427 elapsed seconds
Timing for main: time 2016-02-05_12:42:13 on domain   3:     .40043 elapsed seconds
Timing for main: time 2016-02-05_12:42:26 on domain   3:     .37038 elapsed seconds
Timing for main: time 2016-02-05_12:42:40 on domain   3:     .37078 elapsed seconds
Timing for main: time 2016-02-05_12:42:20 on domain   4:     .45751 elapsed seconds
Timing for main: time 2016-02-05_12:42:40 on domain   4:     .44164 elapsed seconds
Timing for main: time 2016-02-05_12:42:40 on domain   2:    3.29719 elapsed seconds
Timing for main: time 2016-02-05_12:42:53 on domain   3:     .39043 elapsed seconds
Timing for main: time 2016-02-05_12:43:06 on domain   3:     .36934 elapsed seconds
Timing for main: time 2016-02-05_12:43:20 on domain   3:     .36748 elapsed seconds
Timing for main: time 2016-02-05_12:43:00 on domain   4:     .45322 elapsed seconds
Timing for main: time 2016-02-05_12:43:20 on domain   4:     .44147 elapsed seconds
Timing for main: time 2016-02-05_12:43:20 on domain   2:    3.25034 elapsed seconds
Timing for main: time 2016-02-05_12:43:33 on domain   3:     .38846 elapsed seconds
Timing for main: time 2016-02-05_12:43:46 on domain   3:     .36801 elapsed seconds
Timing for main: time 2016-02-05_12:44:00 on domain   3:     .36868 elapsed seconds
Timing for main: time 2016-02-05_12:43:40 on domain   4:     .45432 elapsed seconds
Timing for main: time 2016-02-05_12:44:00 on domain   4:     .44246 elapsed seconds
Timing for main: time 2016-02-05_12:44:00 on domain   2:    3.23147 elapsed seconds
Timing for main: time 2016-02-05_12:44:00 on domain   1:   10.38904 elapsed seconds
Timing for main: time 2016-02-05_12:44:13 on domain   3:     .38633 elapsed seconds
Timing for main: time 2016-02-05_12:44:26 on domain   3:     .36980 elapsed seconds
Timing for main: time 2016-02-05_12:44:40 on domain   3:     .37610 elapsed seconds
Timing for main: time 2016-02-05_12:44:20 on domain   4:     .45669 elapsed seconds
Timing for main: time 2016-02-05_12:44:40 on domain   4:     .44644 elapsed seconds
Timing for main: time 2016-02-05_12:44:40 on domain   2:    3.27373 elapsed seconds
Timing for main: time 2016-02-05_12:44:53 on domain   3:     .38916 elapsed seconds
Timing for main: time 2016-02-05_12:45:06 on domain   3:     .37168 elapsed seconds
Timing for main: time 2016-02-05_12:45:20 on domain   3:     .36798 elapsed seconds
Timing for main: time 2016-02-05_12:45:00 on domain   4:     .47430 elapsed seconds
Timing for main: time 2016-02-05_12:45:20 on domain   4:     .44372 elapsed seconds
Timing for main: time 2016-02-05_12:45:20 on domain   2:    3.26242 elapsed seconds
Timing for main: time 2016-02-05_12:45:33 on domain   3:     .38790 elapsed seconds
Timing for main: time 2016-02-05_12:45:46 on domain   3:     .37140 elapsed seconds
Timing for main: time 2016-02-05_12:46:00 on domain   3:     .38803 elapsed seconds
Timing for main: time 2016-02-05_12:45:40 on domain   4:     .45744 elapsed seconds
Timing for main: time 2016-02-05_12:46:00 on domain   4:     .44417 elapsed seconds
Timing for main: time 2016-02-05_12:46:00 on domain   2:    3.26663 elapsed seconds
Timing for main: time 2016-02-05_12:46:00 on domain   1:   10.41345 elapsed seconds
Timing for main: time 2016-02-05_12:46:13 on domain   3:     .45832 elapsed seconds
Timing for main: time 2016-02-05_12:46:26 on domain   3:     .40468 elapsed seconds
Timing for main: time 2016-02-05_12:46:40 on domain   3:     .37307 elapsed seconds
Timing for main: time 2016-02-05_12:46:20 on domain   4:     .45420 elapsed seconds
Timing for main: time 2016-02-05_12:46:40 on domain   4:     .44701 elapsed seconds
Timing for main: time 2016-02-05_12:46:40 on domain   2:    3.37630 elapsed seconds
Timing for main: time 2016-02-05_12:46:53 on domain   3:     .38960 elapsed seconds
Timing for main: time 2016-02-05_12:47:06 on domain   3:     .36936 elapsed seconds
Timing for main: time 2016-02-05_12:47:20 on domain   3:     .37167 elapsed seconds
Timing for main: time 2016-02-05_12:47:00 on domain   4:     .45615 elapsed seconds
Timing for main: time 2016-02-05_12:47:20 on domain   4:     .44300 elapsed seconds
Timing for main: time 2016-02-05_12:47:20 on domain   2:    3.24000 elapsed seconds
Timing for main: time 2016-02-05_12:47:33 on domain   3:     .38819 elapsed seconds
Timing for main: time 2016-02-05_12:47:46 on domain   3:     .37310 elapsed seconds
Timing for main: time 2016-02-05_12:48:00 on domain   3:     .37125 elapsed seconds
Timing for main: time 2016-02-05_12:47:40 on domain   4:     .45700 elapsed seconds
Timing for main: time 2016-02-05_12:48:00 on domain   4:     .44552 elapsed seconds
Timing for main: time 2016-02-05_12:48:00 on domain   2:    3.26791 elapsed seconds
Timing for main: time 2016-02-05_12:48:00 on domain   1:   10.50342 elapsed seconds
Timing for main: time 2016-02-05_12:48:13 on domain   3:     .38767 elapsed seconds
Timing for main: time 2016-02-05_12:48:26 on domain   3:     .37389 elapsed seconds
Timing for main: time 2016-02-05_12:48:40 on domain   3:     .36922 elapsed seconds
Timing for main: time 2016-02-05_12:48:20 on domain   4:     .45704 elapsed seconds
Timing for main: time 2016-02-05_12:48:40 on domain   4:     .44405 elapsed seconds
Timing for main: time 2016-02-05_12:48:40 on domain   2:    3.27185 elapsed seconds
Timing for main: time 2016-02-05_12:48:53 on domain   3:     .38737 elapsed seconds
Timing for main: time 2016-02-05_12:49:06 on domain   3:     .37103 elapsed seconds
Timing for main: time 2016-02-05_12:49:20 on domain   3:     .37052 elapsed seconds
Timing for main: time 2016-02-05_12:49:00 on domain   4:     .45480 elapsed seconds
Timing for main: time 2016-02-05_12:49:20 on domain   4:     .44293 elapsed seconds
Timing for main: time 2016-02-05_12:49:20 on domain   2:    3.24130 elapsed seconds
Timing for main: time 2016-02-05_12:49:33 on domain   3:     .38689 elapsed seconds
Timing for main: time 2016-02-05_12:49:46 on domain   3:     .37227 elapsed seconds
Timing for main: time 2016-02-05_12:50:00 on domain   3:     .36843 elapsed seconds
Timing for main: time 2016-02-05_12:49:40 on domain   4:     .45397 elapsed seconds
Timing for main: time 2016-02-05_12:50:00 on domain   4:     .46006 elapsed seconds
Timing for main: time 2016-02-05_12:50:00 on domain   2:    3.25659 elapsed seconds
Timing for main: time 2016-02-05_12:50:00 on domain   1:   10.37981 elapsed seconds
Timing for main: time 2016-02-05_12:50:13 on domain   3:     .39108 elapsed seconds
Timing for main: time 2016-02-05_12:50:26 on domain   3:     .37227 elapsed seconds
Timing for main: time 2016-02-05_12:50:40 on domain   3:     .37163 elapsed seconds
Timing for main: time 2016-02-05_12:50:20 on domain   4:     .45727 elapsed seconds
Timing for main: time 2016-02-05_12:50:40 on domain   4:     .44393 elapsed seconds
Timing for main: time 2016-02-05_12:50:40 on domain   2:    3.28315 elapsed seconds
Timing for main: time 2016-02-05_12:50:53 on domain   3:     .38975 elapsed seconds
Timing for main: time 2016-02-05_12:51:06 on domain   3:     .38675 elapsed seconds
Timing for main: time 2016-02-05_12:51:20 on domain   3:     .36956 elapsed seconds
Timing for main: time 2016-02-05_12:51:00 on domain   4:     .45546 elapsed seconds
Timing for main: time 2016-02-05_12:51:20 on domain   4:     .44120 elapsed seconds
Timing for main: time 2016-02-05_12:51:20 on domain   2:    3.25532 elapsed seconds
Timing for main: time 2016-02-05_12:51:33 on domain   3:     .38737 elapsed seconds
Timing for main: time 2016-02-05_12:51:46 on domain   3:     .39422 elapsed seconds
Timing for main: time 2016-02-05_12:52:00 on domain   3:     .49327 elapsed seconds
Timing for main: time 2016-02-05_12:51:40 on domain   4:     .49643 elapsed seconds
Timing for main: time 2016-02-05_12:52:00 on domain   4:     .50320 elapsed seconds
Timing for main: time 2016-02-05_12:52:00 on domain   2:    3.51226 elapsed seconds
Timing for main: time 2016-02-05_12:52:00 on domain   1:   10.65746 elapsed seconds
Timing for main: time 2016-02-05_12:52:13 on domain   3:     .38880 elapsed seconds
Timing for main: time 2016-02-05_12:52:26 on domain   3:     .36807 elapsed seconds
Timing for main: time 2016-02-05_12:52:40 on domain   3:     .37083 elapsed seconds
Timing for main: time 2016-02-05_12:52:20 on domain   4:     .45511 elapsed seconds
Timing for main: time 2016-02-05_12:52:40 on domain   4:     .44390 elapsed seconds
Timing for main: time 2016-02-05_12:52:40 on domain   2:    3.26598 elapsed seconds
Timing for main: time 2016-02-05_12:52:53 on domain   3:     .38877 elapsed seconds
Timing for main: time 2016-02-05_12:53:06 on domain   3:     .36987 elapsed seconds
Timing for main: time 2016-02-05_12:53:20 on domain   3:     .36931 elapsed seconds
Timing for main: time 2016-02-05_12:53:00 on domain   4:     .45482 elapsed seconds
Timing for main: time 2016-02-05_12:53:20 on domain   4:     .44031 elapsed seconds
Timing for main: time 2016-02-05_12:53:20 on domain   2:    3.25181 elapsed seconds
Timing for main: time 2016-02-05_12:53:33 on domain   3:     .38917 elapsed seconds
Timing for main: time 2016-02-05_12:53:46 on domain   3:     .36777 elapsed seconds
Timing for main: time 2016-02-05_12:54:00 on domain   3:     .37192 elapsed seconds
Timing for main: time 2016-02-05_12:53:40 on domain   4:     .45605 elapsed seconds
Timing for main: time 2016-02-05_12:54:00 on domain   4:     .44374 elapsed seconds
Timing for main: time 2016-02-05_12:54:00 on domain   2:    3.23825 elapsed seconds
Timing for main: time 2016-02-05_12:54:00 on domain   1:   10.37411 elapsed seconds
Timing for main: time 2016-02-05_12:54:13 on domain   3:     .38921 elapsed seconds
Timing for main: time 2016-02-05_12:54:26 on domain   3:     .36968 elapsed seconds
Timing for main: time 2016-02-05_12:54:40 on domain   3:     .37128 elapsed seconds
Timing for main: time 2016-02-05_12:54:20 on domain   4:     .45330 elapsed seconds
Timing for main: time 2016-02-05_12:54:40 on domain   4:     .44371 elapsed seconds
Timing for main: time 2016-02-05_12:54:40 on domain   2:    3.26398 elapsed seconds
Timing for main: time 2016-02-05_12:54:53 on domain   3:     .38913 elapsed seconds
Timing for main: time 2016-02-05_12:55:06 on domain   3:     .36940 elapsed seconds
Timing for main: time 2016-02-05_12:55:20 on domain   3:     .37072 elapsed seconds
Timing for main: time 2016-02-05_12:55:00 on domain   4:     .47212 elapsed seconds
Timing for main: time 2016-02-05_12:55:20 on domain   4:     .44559 elapsed seconds
Timing for main: time 2016-02-05_12:55:20 on domain   2:    3.26445 elapsed seconds
Timing for main: time 2016-02-05_12:55:33 on domain   3:     .38831 elapsed seconds
Timing for main: time 2016-02-05_12:55:46 on domain   3:     .36872 elapsed seconds
Timing for main: time 2016-02-05_12:56:00 on domain   3:     .37030 elapsed seconds
Timing for main: time 2016-02-05_12:55:40 on domain   4:     .46473 elapsed seconds
Timing for main: time 2016-02-05_12:56:00 on domain   4:     .44820 elapsed seconds
Timing for main: time 2016-02-05_12:56:00 on domain   2:    3.28628 elapsed seconds
Timing for main: time 2016-02-05_12:56:00 on domain   1:   10.42664 elapsed seconds
Timing for main: time 2016-02-05_12:56:13 on domain   3:     .40419 elapsed seconds
Timing for main: time 2016-02-05_12:56:26 on domain   3:     .37051 elapsed seconds
Timing for main: time 2016-02-05_12:56:40 on domain   3:     .36876 elapsed seconds
Timing for main: time 2016-02-05_12:56:20 on domain   4:     .45437 elapsed seconds
Timing for main: time 2016-02-05_12:56:40 on domain   4:     .43979 elapsed seconds
Timing for main: time 2016-02-05_12:56:40 on domain   2:    3.27880 elapsed seconds
Timing for main: time 2016-02-05_12:56:53 on domain   3:     .38710 elapsed seconds
Timing for main: time 2016-02-05_12:57:06 on domain   3:     .37190 elapsed seconds
Timing for main: time 2016-02-05_12:57:20 on domain   3:     .36724 elapsed seconds
Timing for main: time 2016-02-05_12:57:00 on domain   4:     .45862 elapsed seconds
Timing for main: time 2016-02-05_12:57:20 on domain   4:     .44368 elapsed seconds
Timing for main: time 2016-02-05_12:57:20 on domain   2:    3.24168 elapsed seconds
Timing for main: time 2016-02-05_12:57:33 on domain   3:     .38723 elapsed seconds
Timing for main: time 2016-02-05_12:57:46 on domain   3:     .37097 elapsed seconds
Timing for main: time 2016-02-05_12:58:00 on domain   3:     .37023 elapsed seconds
Timing for main: time 2016-02-05_12:57:40 on domain   4:     .45612 elapsed seconds
Timing for main: time 2016-02-05_12:58:00 on domain   4:     .44479 elapsed seconds
Timing for main: time 2016-02-05_12:58:00 on domain   2:    3.24464 elapsed seconds
Timing for main: time 2016-02-05_12:58:00 on domain   1:   10.37532 elapsed seconds
  photolysis_driver: called for domain  1
Timing for main: time 2016-02-05_12:58:13 on domain   3:     .38907 elapsed seconds
Timing for main: time 2016-02-05_12:58:26 on domain   3:     .36983 elapsed seconds
Timing for main: time 2016-02-05_12:58:40 on domain   3:     .37041 elapsed seconds
Timing for main: time 2016-02-05_12:58:20 on domain   4:     .45637 elapsed seconds
Timing for main: time 2016-02-05_12:58:40 on domain   4:     .44416 elapsed seconds
Timing for main: time 2016-02-05_12:58:40 on domain   2:    3.28637 elapsed seconds
Timing for main: time 2016-02-05_12:58:53 on domain   3:     .38873 elapsed seconds
Timing for main: time 2016-02-05_12:59:06 on domain   3:     .37178 elapsed seconds
Timing for main: time 2016-02-05_12:59:20 on domain   3:     .36929 elapsed seconds
Timing for main: time 2016-02-05_12:59:00 on domain   4:     .45755 elapsed seconds
Timing for main: time 2016-02-05_12:59:20 on domain   4:     .44419 elapsed seconds
Timing for main: time 2016-02-05_12:59:20 on domain   2:    3.24856 elapsed seconds
  photolysis_driver: called for domain  2
Timing for main: time 2016-02-05_12:59:33 on domain   3:     .38974 elapsed seconds
Timing for main: time 2016-02-05_12:59:46 on domain   3:     .36946 elapsed seconds
  photolysis_driver: called for domain  3
Timing for main: time 2016-02-05_13:00:00 on domain   3:    1.97641 elapsed seconds
Timing for main: time 2016-02-05_12:59:40 on domain   4:     .45553 elapsed seconds
  photolysis_driver: called for domain  4
Timing for main: time 2016-02-05_13:00:00 on domain   4:    2.33781 elapsed seconds
Timing for main: time 2016-02-05_13:00:00 on domain   2:    8.70975 elapsed seconds
Timing for main: time 2016-02-05_13:00:00 on domain   1:   17.06860 elapsed seconds
Timing for Writing wrfout_d01_2016-02-05_13:00:00 for domain        1:    1.76613 elapsed seconds
  HOURLY EMISSIONS UPDATE TIME     3600.0        .0
 mediation_integrate: med_read_wrf_chem_emissions: Read emissions for time 2016-02-05_13:00:00
 **WARNING** Time in input file not being checked **WARNING**
Timing for Writing wrfout_d02_2016-02-05_13:00:00 for domain        2:    2.56943 elapsed seconds
Timing for Writing wrfout_d03_2016-02-05_13:00:00 for domain        3:    2.35384 elapsed seconds
Timing for main: time 2016-02-05_13:00:13 on domain   3:    3.11946 elapsed seconds
Timing for main: time 2016-02-05_13:00:26 on domain   3:     .40920 elapsed seconds
Timing for main: time 2016-02-05_13:00:40 on domain   3:     .38510 elapsed seconds
Timing for Writing wrfout_d04_2016-02-05_13:00:00 for domain        4:    2.42904 elapsed seconds
Timing for main: time 2016-02-05_13:00:20 on domain   4:    3.34687 elapsed seconds
Timing for main: time 2016-02-05_13:00:40 on domain   4:     .49459 elapsed seconds
Timing for main: time 2016-02-05_13:00:40 on domain   2:   12.04497 elapsed seconds
Timing for main: time 2016-02-05_13:00:53 on domain   3:     .38727 elapsed seconds
Timing for main: time 2016-02-05_13:01:06 on domain   3:     .37164 elapsed seconds
Timing for main: time 2016-02-05_13:01:20 on domain   3:     .38543 elapsed seconds
Timing for main: time 2016-02-05_13:01:00 on domain   4:     .45721 elapsed seconds
Timing for main: time 2016-02-05_13:01:20 on domain   4:     .44472 elapsed seconds
Timing for main: time 2016-02-05_13:01:20 on domain   2:    3.25922 elapsed seconds
Timing for main: time 2016-02-05_13:01:33 on domain   3:     .38925 elapsed seconds
Timing for main: time 2016-02-05_13:01:46 on domain   3:     .37335 elapsed seconds
Timing for main: time 2016-02-05_13:02:00 on domain   3:     .36834 elapsed seconds
Timing for main: time 2016-02-05_13:01:40 on domain   4:     .46073 elapsed seconds
Timing for main: time 2016-02-05_13:02:00 on domain   4:     .44400 elapsed seconds
Timing for main: time 2016-02-05_13:02:00 on domain   2:    3.25138 elapsed seconds
Timing for main: time 2016-02-05_13:02:00 on domain   1:   22.41595 elapsed seconds
Timing for main: time 2016-02-05_13:02:13 on domain   3:     .38697 elapsed seconds
Timing for main: time 2016-02-05_13:02:26 on domain   3:     .37315 elapsed seconds
Timing for main: time 2016-02-05_13:02:40 on domain   3:     .37223 elapsed seconds
Timing for main: time 2016-02-05_13:02:20 on domain   4:     .46176 elapsed seconds
Timing for main: time 2016-02-05_13:02:40 on domain   4:     .44668 elapsed seconds
Timing for main: time 2016-02-05_13:02:40 on domain   2:    3.27783 elapsed seconds
Timing for main: time 2016-02-05_13:02:53 on domain   3:     .38794 elapsed seconds
Timing for main: time 2016-02-05_13:03:06 on domain   3:     .37036 elapsed seconds
Timing for main: time 2016-02-05_13:03:20 on domain   3:     .36894 elapsed seconds
Timing for main: time 2016-02-05_13:03:00 on domain   4:     .45715 elapsed seconds
Timing for main: time 2016-02-05_13:03:20 on domain   4:     .44462 elapsed seconds
Timing for main: time 2016-02-05_13:03:20 on domain   2:    3.24281 elapsed seconds
Timing for main: time 2016-02-05_13:03:33 on domain   3:     .38890 elapsed seconds
Timing for main: time 2016-02-05_13:03:46 on domain   3:     .37010 elapsed seconds
Timing for main: time 2016-02-05_13:04:00 on domain   3:     .36921 elapsed seconds
Timing for main: time 2016-02-05_13:03:40 on domain   4:     .45802 elapsed seconds
Timing for main: time 2016-02-05_13:04:00 on domain   4:     .44326 elapsed seconds
Timing for main: time 2016-02-05_13:04:00 on domain   2:    3.26493 elapsed seconds
Timing for main: time 2016-02-05_13:04:00 on domain   1:   10.39698 elapsed seconds
Timing for main: time 2016-02-05_13:04:13 on domain   3:     .38789 elapsed seconds
Timing for main: time 2016-02-05_13:04:26 on domain   3:     .37331 elapsed seconds
Timing for main: time 2016-02-05_13:04:40 on domain   3:     .36770 elapsed seconds
Timing for main: time 2016-02-05_13:04:20 on domain   4:     .45865 elapsed seconds
Timing for main: time 2016-02-05_13:04:40 on domain   4:     .44500 elapsed seconds
Timing for main: time 2016-02-05_13:04:40 on domain   2:    3.27339 elapsed seconds
Timing for main: time 2016-02-05_13:04:53 on domain   3:     .38892 elapsed seconds
Timing for main: time 2016-02-05_13:05:06 on domain   3:     .37103 elapsed seconds
Timing for main: time 2016-02-05_13:05:20 on domain   3:     .37036 elapsed seconds
Timing for main: time 2016-02-05_13:05:00 on domain   4:     .47572 elapsed seconds
Timing for main: time 2016-02-05_13:05:20 on domain   4:     .44412 elapsed seconds
Timing for main: time 2016-02-05_13:05:20 on domain   2:    3.26717 elapsed seconds
Timing for main: time 2016-02-05_13:05:33 on domain   3:     .39110 elapsed seconds
Timing for main: time 2016-02-05_13:05:46 on domain   3:     .36952 elapsed seconds
Timing for main: time 2016-02-05_13:06:00 on domain   3:     .37016 elapsed seconds
Timing for main: time 2016-02-05_13:05:40 on domain   4:     .45787 elapsed seconds
Timing for main: time 2016-02-05_13:06:00 on domain   4:     .44471 elapsed seconds
Timing for main: time 2016-02-05_13:06:00 on domain   2:    3.24814 elapsed seconds
Timing for main: time 2016-02-05_13:06:00 on domain   1:   10.41278 elapsed seconds
Timing for main: time 2016-02-05_13:06:13 on domain   3:     .39105 elapsed seconds
Timing for main: time 2016-02-05_13:06:26 on domain   3:     .38364 elapsed seconds
Timing for main: time 2016-02-05_13:06:40 on domain   3:     .37152 elapsed seconds
Timing for main: time 2016-02-05_13:06:20 on domain   4:     .45768 elapsed seconds
Timing for main: time 2016-02-05_13:06:40 on domain   4:     .52439 elapsed seconds
Timing for main: time 2016-02-05_13:06:40 on domain   2:    3.37388 elapsed seconds
Timing for main: time 2016-02-05_13:06:53 on domain   3:     .39005 elapsed seconds
Timing for main: time 2016-02-05_13:07:06 on domain   3:     .37023 elapsed seconds
Timing for main: time 2016-02-05_13:07:20 on domain   3:     .37046 elapsed seconds
Timing for main: time 2016-02-05_13:07:00 on domain   4:     .45860 elapsed seconds
Timing for main: time 2016-02-05_13:07:20 on domain   4:     .44414 elapsed seconds
Timing for main: time 2016-02-05_13:07:20 on domain   2:    3.24170 elapsed seconds
Timing for main: time 2016-02-05_13:07:33 on domain   3:     .38722 elapsed seconds
Timing for main: time 2016-02-05_13:07:46 on domain   3:     .38172 elapsed seconds
Timing for main: time 2016-02-05_13:08:00 on domain   3:     .36145 elapsed seconds
Timing for main: time 2016-02-05_13:07:40 on domain   4:     .45542 elapsed seconds
Timing for main: time 2016-02-05_13:08:00 on domain   4:     .44516 elapsed seconds
Timing for main: time 2016-02-05_13:08:00 on domain   2:    3.24957 elapsed seconds
Timing for main: time 2016-02-05_13:08:00 on domain   1:   10.47533 elapsed seconds
Timing for main: time 2016-02-05_13:08:13 on domain   3:     .38931 elapsed seconds
Timing for main: time 2016-02-05_13:08:26 on domain   3:     .36957 elapsed seconds
Timing for main: time 2016-02-05_13:08:40 on domain   3:     .37327 elapsed seconds
Timing for main: time 2016-02-05_13:08:20 on domain   4:     .45667 elapsed seconds
Timing for main: time 2016-02-05_13:08:40 on domain   4:     .44425 elapsed seconds
Timing for main: time 2016-02-05_13:08:40 on domain   2:    3.27150 elapsed seconds
Timing for main: time 2016-02-05_13:08:53 on domain   3:     .38842 elapsed seconds
Timing for main: time 2016-02-05_13:09:06 on domain   3:     .36941 elapsed seconds
Timing for main: time 2016-02-05_13:09:20 on domain   3:     .36924 elapsed seconds
Timing for main: time 2016-02-05_13:09:00 on domain   4:     .45867 elapsed seconds
Timing for main: time 2016-02-05_13:09:20 on domain   4:     .44094 elapsed seconds
Timing for main: time 2016-02-05_13:09:20 on domain   2:    3.25420 elapsed seconds
Timing for main: time 2016-02-05_13:09:33 on domain   3:     .39080 elapsed seconds
Timing for main: time 2016-02-05_13:09:46 on domain   3:     .36906 elapsed seconds
Timing for main: time 2016-02-05_13:10:00 on domain   3:     .37165 elapsed seconds
Timing for main: time 2016-02-05_13:09:40 on domain   4:     .45663 elapsed seconds
Timing for main: time 2016-02-05_13:10:00 on domain   4:     .46060 elapsed seconds
Timing for main: time 2016-02-05_13:10:00 on domain   2:    3.26013 elapsed seconds
Timing for main: time 2016-02-05_13:10:00 on domain   1:   10.39692 elapsed seconds
Timing for main: time 2016-02-05_13:10:13 on domain   3:     .38967 elapsed seconds
Timing for main: time 2016-02-05_13:10:26 on domain   3:     .36902 elapsed seconds
Timing for main: time 2016-02-05_13:10:40 on domain   3:     .36858 elapsed seconds
Timing for main: time 2016-02-05_13:10:20 on domain   4:     .45707 elapsed seconds
Timing for main: time 2016-02-05_13:10:40 on domain   4:     .44069 elapsed seconds
Timing for main: time 2016-02-05_13:10:40 on domain   2:    3.26208 elapsed seconds
Timing for main: time 2016-02-05_13:10:53 on domain   3:     .39074 elapsed seconds
Timing for main: time 2016-02-05_13:11:06 on domain   3:     .36889 elapsed seconds
Timing for main: time 2016-02-05_13:11:20 on domain   3:     .36957 elapsed seconds
Timing for main: time 2016-02-05_13:11:00 on domain   4:     .45646 elapsed seconds
Timing for main: time 2016-02-05_13:11:20 on domain   4:     .44439 elapsed seconds
Timing for main: time 2016-02-05_13:11:20 on domain   2:    3.24161 elapsed seconds
Timing for main: time 2016-02-05_13:11:33 on domain   3:     .40308 elapsed seconds
Timing for main: time 2016-02-05_13:11:46 on domain   3:     .36980 elapsed seconds
Timing for main: time 2016-02-05_13:12:00 on domain   3:     .37027 elapsed seconds
Timing for main: time 2016-02-05_13:11:40 on domain   4:     .45775 elapsed seconds
Timing for main: time 2016-02-05_13:12:00 on domain   4:     .44513 elapsed seconds
Timing for main: time 2016-02-05_13:12:00 on domain   2:    3.26074 elapsed seconds
Timing for main: time 2016-02-05_13:12:00 on domain   1:   10.38254 elapsed seconds
Timing for main: time 2016-02-05_13:12:13 on domain   3:     .38943 elapsed seconds
Timing for main: time 2016-02-05_13:12:26 on domain   3:     .36964 elapsed seconds
Timing for main: time 2016-02-05_13:12:40 on domain   3:     .37027 elapsed seconds
Timing for main: time 2016-02-05_13:12:20 on domain   4:     .45610 elapsed seconds
Timing for main: time 2016-02-05_13:12:40 on domain   4:     .44332 elapsed seconds
Timing for main: time 2016-02-05_13:12:40 on domain   2:    3.26768 elapsed seconds
Timing for main: time 2016-02-05_13:12:53 on domain   3:     .38909 elapsed seconds
Timing for main: time 2016-02-05_13:13:06 on domain   3:     .37147 elapsed seconds
Timing for main: time 2016-02-05_13:13:20 on domain   3:     .36960 elapsed seconds
Timing for main: time 2016-02-05_13:13:00 on domain   4:     .45490 elapsed seconds
Timing for main: time 2016-02-05_13:13:20 on domain   4:     .44441 elapsed seconds
Timing for main: time 2016-02-05_13:13:20 on domain   2:    3.24386 elapsed seconds
Timing for main: time 2016-02-05_13:13:33 on domain   3:     .38740 elapsed seconds
Timing for main: time 2016-02-05_13:13:46 on domain   3:     .37084 elapsed seconds
Timing for main: time 2016-02-05_13:14:00 on domain   3:     .36899 elapsed seconds
Timing for main: time 2016-02-05_13:13:40 on domain   4:     .45586 elapsed seconds
Timing for main: time 2016-02-05_13:14:00 on domain   4:     .44373 elapsed seconds
Timing for main: time 2016-02-05_13:14:00 on domain   2:    3.24471 elapsed seconds
Timing for main: time 2016-02-05_13:14:00 on domain   1:   10.40110 elapsed seconds
Timing for main: time 2016-02-05_13:14:13 on domain   3:     .38882 elapsed seconds
Timing for main: time 2016-02-05_13:14:26 on domain   3:     .37240 elapsed seconds
Timing for main: time 2016-02-05_13:14:40 on domain   3:     .36922 elapsed seconds
Timing for main: time 2016-02-05_13:14:20 on domain   4:     .45611 elapsed seconds
Timing for main: time 2016-02-05_13:14:40 on domain   4:     .44330 elapsed seconds
Timing for main: time 2016-02-05_13:14:40 on domain   2:    3.29101 elapsed seconds
Timing for main: time 2016-02-05_13:14:53 on domain   3:     .38905 elapsed seconds
Timing for main: time 2016-02-05_13:15:06 on domain   3:     .37042 elapsed seconds
Timing for main: time 2016-02-05_13:15:20 on domain   3:     .37288 elapsed seconds
Timing for main: time 2016-02-05_13:15:00 on domain   4:     .47076 elapsed seconds
Timing for main: time 2016-02-05_13:15:20 on domain   4:     .44408 elapsed seconds
Timing for main: time 2016-02-05_13:15:20 on domain   2:    3.26624 elapsed seconds
Timing for main: time 2016-02-05_13:15:33 on domain   3:     .38714 elapsed seconds
Timing for main: time 2016-02-05_13:15:46 on domain   3:     .37177 elapsed seconds
Timing for main: time 2016-02-05_13:16:00 on domain   3:     .37146 elapsed seconds
Timing for main: time 2016-02-05_13:15:40 on domain   4:     .45620 elapsed seconds
Timing for main: time 2016-02-05_13:16:00 on domain   4:     .44314 elapsed seconds
Timing for main: time 2016-02-05_13:16:00 on domain   2:    3.24395 elapsed seconds
Timing for main: time 2016-02-05_13:16:00 on domain   1:   10.41371 elapsed seconds
Timing for main: time 2016-02-05_13:16:13 on domain   3:     .37072 elapsed seconds
Timing for main: time 2016-02-05_13:16:26 on domain   3:     .37004 elapsed seconds
Timing for main: time 2016-02-05_13:16:40 on domain   3:     .38476 elapsed seconds
Timing for main: time 2016-02-05_13:16:20 on domain   4:     .45633 elapsed seconds
Timing for main: time 2016-02-05_13:16:40 on domain   4:     .44507 elapsed seconds
Timing for main: time 2016-02-05_13:16:40 on domain   2:    3.29850 elapsed seconds
Timing for main: time 2016-02-05_13:16:53 on domain   3:     .38741 elapsed seconds
Timing for main: time 2016-02-05_13:17:06 on domain   3:     .37183 elapsed seconds
Timing for main: time 2016-02-05_13:17:20 on domain   3:     .36980 elapsed seconds
Timing for main: time 2016-02-05_13:17:00 on domain   4:     .45671 elapsed seconds
Timing for main: time 2016-02-05_13:17:20 on domain   4:     .44457 elapsed seconds
Timing for main: time 2016-02-05_13:17:20 on domain   2:    3.24298 elapsed seconds
[...]
Timing for main: time 2016-02-05_17:36:00 on domain   2:    3.27729 elapsed seconds
Timing for main: time 2016-02-05_17:36:00 on domain   1:   10.45201 elapsed seconds
Timing for main: time 2016-02-05_17:36:13 on domain   3:     .39396 elapsed seconds
Timing for main: time 2016-02-05_17:36:26 on domain   3:     .37036 elapsed seconds
Timing for main: time 2016-02-05_17:36:40 on domain   3:     .36957 elapsed seconds
Timing for main: time 2016-02-05_17:36:20 on domain   4:     .45537 elapsed seconds
Timing for main: time 2016-02-05_17:36:40 on domain   4:     .44526 elapsed seconds
Timing for main: time 2016-02-05_17:36:40 on domain   2:    3.27322 elapsed seconds
Timing for main: time 2016-02-05_17:36:53 on domain   3:     .39119 elapsed seconds
Timing for main: time 2016-02-05_17:37:06 on domain   3:     .37088 elapsed seconds
Timing for main: time 2016-02-05_17:37:20 on domain   3:     .38628 elapsed seconds
Timing for main: time 2016-02-05_17:37:00 on domain   4:     .45584 elapsed seconds
Timing for main: time 2016-02-05_17:37:20 on domain   4:     .44527 elapsed seconds
Timing for main: time 2016-02-05_17:37:20 on domain   2:    3.26636 elapsed seconds
Timing for main: time 2016-02-05_17:37:33 on domain   3:     .39034 elapsed seconds
Timing for main: time 2016-02-05_17:37:46 on domain   3:     .37352 elapsed seconds
Timing for main: time 2016-02-05_17:38:00 on domain   3:     .37216 elapsed seconds
Timing for main: time 2016-02-05_17:37:40 on domain   4:     .45743 elapsed seconds
Timing for main: time 2016-02-05_17:38:00 on domain   4:     .44355 elapsed seconds
Timing for main: time 2016-02-05_17:38:00 on domain   2:    3.25053 elapsed seconds
Timing for main: time 2016-02-05_17:38:00 on domain   1:   10.51412 elapsed seconds
Timing for main: time 2016-02-05_17:38:13 on domain   3:     .39167 elapsed seconds
Timing for main: time 2016-02-05_17:38:26 on domain   3:     .37127 elapsed seconds
Timing for main: time 2016-02-05_17:38:40 on domain   3:     .37119 elapsed seconds
Timing for main: time 2016-02-05_17:38:20 on domain   4:     .45580 elapsed seconds
Timing for main: time 2016-02-05_17:38:40 on domain   4:     .44710 elapsed seconds
Timing for main: time 2016-02-05_17:38:40 on domain   2:    3.27360 elapsed seconds
Timing for main: time 2016-02-05_17:38:53 on domain   3:     .39101 elapsed seconds
Timing for main: time 2016-02-05_17:39:06 on domain   3:     .37194 elapsed seconds
Timing for main: time 2016-02-05_17:39:20 on domain   3:     .37129 elapsed seconds
Timing for main: time 2016-02-05_17:39:00 on domain   4:     .45576 elapsed seconds
Timing for main: time 2016-02-05_17:39:20 on domain   4:     .44265 elapsed seconds
Timing for main: time 2016-02-05_17:39:20 on domain   2:    3.24797 elapsed seconds
Timing for main: time 2016-02-05_17:39:33 on domain   3:     .39224 elapsed seconds
Timing for main: time 2016-02-05_17:39:46 on domain   3:     .37357 elapsed seconds
Timing for main: time 2016-02-05_17:40:00 on domain   3:     .36999 elapsed seconds
Timing for main: time 2016-02-05_17:39:40 on domain   4:     .45665 elapsed seconds
Timing for main: time 2016-02-05_17:40:00 on domain   4:     .46547 elapsed seconds
Timing for main: time 2016-02-05_17:40:00 on domain   2:    3.26820 elapsed seconds
Timing for main: time 2016-02-05_17:40:00 on domain   1:   10.40685 elapsed seconds
Timing for main: time 2016-02-05_17:40:13 on domain   3:     .39690 elapsed seconds
Timing for main: time 2016-02-05_17:40:26 on domain   3:     .37072 elapsed seconds
Timing for main: time 2016-02-05_17:40:40 on domain   3:     .36357 elapsed seconds
Timing for main: time 2016-02-05_17:40:20 on domain   4:     .45588 elapsed seconds
Timing for main: time 2016-02-05_17:40:40 on domain   4:     .44589 elapsed seconds
Timing for main: time 2016-02-05_17:40:40 on domain   2:    3.27892 elapsed seconds
Timing for main: time 2016-02-05_17:40:53 on domain   3:     .39188 elapsed seconds
Timing for main: time 2016-02-05_17:41:06 on domain   3:     .37196 elapsed seconds
Timing for main: time 2016-02-05_17:41:20 on domain   3:     .39883 elapsed seconds
Timing for main: time 2016-02-05_17:41:00 on domain   4:     .45636 elapsed seconds
Timing for main: time 2016-02-05_17:41:20 on domain   4:     .44579 elapsed seconds
Timing for main: time 2016-02-05_17:41:20 on domain   2:    3.30875 elapsed seconds
Timing for main: time 2016-02-05_17:41:33 on domain   3:     .39270 elapsed seconds
Timing for main: time 2016-02-05_17:41:46 on domain   3:     .37040 elapsed seconds
Timing for main: time 2016-02-05_17:42:00 on domain   3:     .36995 elapsed seconds
Timing for main: time 2016-02-05_17:41:40 on domain   4:     .45759 elapsed seconds
Timing for main: time 2016-02-05_17:42:00 on domain   4:     .44333 elapsed seconds
Timing for main: time 2016-02-05_17:42:00 on domain   2:    3.24866 elapsed seconds
Timing for main: time 2016-02-05_17:42:00 on domain   1:   10.46556 elapsed seconds
Timing for main: time 2016-02-05_17:42:13 on domain   3:     .39053 elapsed seconds
Timing for main: time 2016-02-05_17:42:26 on domain   3:     .38617 elapsed seconds
Timing for main: time 2016-02-05_17:42:40 on domain   3:     .37049 elapsed seconds
Timing for main: time 2016-02-05_17:42:20 on domain   4:     .46024 elapsed seconds
Timing for main: time 2016-02-05_17:42:40 on domain   4:     .44087 elapsed seconds
Timing for main: time 2016-02-05_17:42:40 on domain   2:    3.29045 elapsed seconds
Timing for main: time 2016-02-05_17:42:53 on domain   3:     .39045 elapsed seconds
Timing for main: time 2016-02-05_17:43:06 on domain   3:     .37184 elapsed seconds
Timing for main: time 2016-02-05_17:43:20 on domain   3:     .37030 elapsed seconds
Timing for main: time 2016-02-05_17:43:00 on domain   4:     .45616 elapsed seconds
Timing for main: time 2016-02-05_17:43:20 on domain   4:     .44251 elapsed seconds
Timing for main: time 2016-02-05_17:43:20 on domain   2:    3.24553 elapsed seconds
Timing for main: time 2016-02-05_17:43:33 on domain   3:     .39214 elapsed seconds
Timing for main: time 2016-02-05_17:43:46 on domain   3:     .37164 elapsed seconds
Timing for main: time 2016-02-05_17:44:00 on domain   3:     .37040 elapsed seconds
Timing for main: time 2016-02-05_17:43:40 on domain   4:     .45548 elapsed seconds
Timing for main: time 2016-02-05_17:44:00 on domain   4:     .44603 elapsed seconds
Timing for main: time 2016-02-05_17:44:00 on domain   2:    3.24844 elapsed seconds
Timing for main: time 2016-02-05_17:44:00 on domain   1:   10.40020 elapsed seconds
Timing for main: time 2016-02-05_17:44:13 on domain   3:     .39145 elapsed seconds
Timing for main: time 2016-02-05_17:44:26 on domain   3:     .37124 elapsed seconds
Timing for main: time 2016-02-05_17:44:40 on domain   3:     .37204 elapsed seconds
Timing for main: time 2016-02-05_17:44:20 on domain   4:     .45726 elapsed seconds
Timing for main: time 2016-02-05_17:44:40 on domain   4:     .44352 elapsed seconds
Timing for main: time 2016-02-05_17:44:40 on domain   2:    3.27434 elapsed seconds
Timing for main: time 2016-02-05_17:44:53 on domain   3:     .39345 elapsed seconds
Timing for main: time 2016-02-05_17:45:06 on domain   3:     .37082 elapsed seconds
Timing for main: time 2016-02-05_17:45:20 on domain   3:     .37080 elapsed seconds
Timing for main: time 2016-02-05_17:45:00 on domain   4:     .47595 elapsed seconds
Timing for main: time 2016-02-05_17:45:20 on domain   4:     .44399 elapsed seconds
Timing for main: time 2016-02-05_17:45:20 on domain   2:    3.26732 elapsed seconds
Timing for main: time 2016-02-05_17:45:33 on domain   3:     .39319 elapsed seconds
Timing for main: time 2016-02-05_17:45:46 on domain   3:     .37223 elapsed seconds
Timing for main: time 2016-02-05_17:46:00 on domain   3:     .37092 elapsed seconds
Timing for main: time 2016-02-05_17:45:40 on domain   4:     .45813 elapsed seconds
Timing for main: time 2016-02-05_17:46:00 on domain   4:     .44553 elapsed seconds
Timing for main: time 2016-02-05_17:46:00 on domain   2:    3.25367 elapsed seconds
Timing for main: time 2016-02-05_17:46:00 on domain   1:   10.40987 elapsed seconds
Timing for main: time 2016-02-05_17:46:13 on domain   3:     .39704 elapsed seconds
Timing for main: time 2016-02-05_17:46:26 on domain   3:     .37160 elapsed seconds
Timing for main: time 2016-02-05_17:46:40 on domain   3:     .37208 elapsed seconds
Timing for main: time 2016-02-05_17:46:20 on domain   4:     .46061 elapsed seconds
Timing for main: time 2016-02-05_17:46:40 on domain   4:     .44553 elapsed seconds
Timing for main: time 2016-02-05_17:46:40 on domain   2:    3.30264 elapsed seconds
Timing for main: time 2016-02-05_17:46:53 on domain   3:     .39314 elapsed seconds
Timing for main: time 2016-02-05_17:47:06 on domain   3:     .36985 elapsed seconds
Timing for main: time 2016-02-05_17:47:20 on domain   3:     .37146 elapsed seconds
Timing for main: time 2016-02-05_17:47:00 on domain   4:     .45625 elapsed seconds
Timing for main: time 2016-02-05_17:47:20 on domain   4:     .44416 elapsed seconds
Timing for main: time 2016-02-05_17:47:20 on domain   2:    3.25005 elapsed seconds
Timing for main: time 2016-02-05_17:47:33 on domain   3:     .40629 elapsed seconds
Timing for main: time 2016-02-05_17:47:46 on domain   3:     .37159 elapsed seconds
Timing for main: time 2016-02-05_17:48:00 on domain   3:     .37164 elapsed seconds
Timing for main: time 2016-02-05_17:47:40 on domain   4:     .45634 elapsed seconds
Timing for main: time 2016-02-05_17:48:00 on domain   4:     .44618 elapsed seconds
Timing for main: time 2016-02-05_17:48:00 on domain   2:    3.26622 elapsed seconds
Timing for main: time 2016-02-05_17:48:00 on domain   1:   10.44790 elapsed seconds
Timing for main: time 2016-02-05_17:48:13 on domain   3:     .39182 elapsed seconds
Timing for main: time 2016-02-05_17:48:26 on domain   3:     .37051 elapsed seconds
Timing for main: time 2016-02-05_17:48:40 on domain   3:     .37143 elapsed seconds
Timing for main: time 2016-02-05_17:48:20 on domain   4:     .45510 elapsed seconds
Timing for main: time 2016-02-05_17:48:40 on domain   4:     .44639 elapsed seconds
Timing for main: time 2016-02-05_17:48:40 on domain   2:    3.27063 elapsed seconds
Timing for main: time 2016-02-05_17:48:53 on domain   3:     .39260 elapsed seconds
Timing for main: time 2016-02-05_17:49:06 on domain   3:     .37107 elapsed seconds
Timing for main: time 2016-02-05_17:49:20 on domain   3:     .37075 elapsed seconds
Timing for main: time 2016-02-05_17:49:00 on domain   4:     .45437 elapsed seconds
Timing for main: time 2016-02-05_17:49:20 on domain   4:     .44286 elapsed seconds
Timing for main: time 2016-02-05_17:49:20 on domain   2:    3.24546 elapsed seconds
Timing for main: time 2016-02-05_17:49:33 on domain   3:     .39301 elapsed seconds
Timing for main: time 2016-02-05_17:49:46 on domain   3:     .37028 elapsed seconds
Timing for main: time 2016-02-05_17:50:00 on domain   3:     .37122 elapsed seconds
Timing for main: time 2016-02-05_17:49:40 on domain   4:     .45618 elapsed seconds
Timing for main: time 2016-02-05_17:50:00 on domain   4:     .46111 elapsed seconds
Timing for main: time 2016-02-05_17:50:00 on domain   2:    3.26298 elapsed seconds
Timing for main: time 2016-02-05_17:50:00 on domain   1:   10.39701 elapsed seconds
Timing for main: time 2016-02-05_17:50:13 on domain   3:     .39454 elapsed seconds
Timing for main: time 2016-02-05_17:50:26 on domain   3:     .37117 elapsed seconds
Timing for main: time 2016-02-05_17:50:40 on domain   3:     .37049 elapsed seconds
Timing for main: time 2016-02-05_17:50:20 on domain   4:     .45736 elapsed seconds
Timing for main: time 2016-02-05_17:50:40 on domain   4:     .44186 elapsed seconds
Timing for main: time 2016-02-05_17:50:40 on domain   2:    3.27182 elapsed seconds
Timing for main: time 2016-02-05_17:50:53 on domain   3:     .39290 elapsed seconds
Timing for main: time 2016-02-05_17:51:06 on domain   3:     .36947 elapsed seconds
Timing for main: time 2016-02-05_17:51:20 on domain   3:     .37070 elapsed seconds
Timing for main: time 2016-02-05_17:51:00 on domain   4:     .45666 elapsed seconds
Timing for main: time 2016-02-05_17:51:20 on domain   4:     .44321 elapsed seconds
Timing for main: time 2016-02-05_17:51:20 on domain   2:    3.24774 elapsed seconds
Timing for main: time 2016-02-05_17:51:33 on domain   3:     .39259 elapsed seconds
Timing for main: time 2016-02-05_17:51:46 on domain   3:     .37028 elapsed seconds
Timing for main: time 2016-02-05_17:52:00 on domain   3:     .37129 elapsed seconds
Timing for main: time 2016-02-05_17:51:40 on domain   4:     .45724 elapsed seconds
Timing for main: time 2016-02-05_17:52:00 on domain   4:     .44344 elapsed seconds
Timing for main: time 2016-02-05_17:52:00 on domain   2:    3.26589 elapsed seconds
Timing for main: time 2016-02-05_17:52:00 on domain   1:   10.39942 elapsed seconds
Timing for main: time 2016-02-05_17:52:13 on domain   3:     .38845 elapsed seconds
Timing for main: time 2016-02-05_17:52:26 on domain   3:     .37370 elapsed seconds
Timing for main: time 2016-02-05_17:52:40 on domain   3:     .38923 elapsed seconds
Timing for main: time 2016-02-05_17:52:20 on domain   4:     .45650 elapsed seconds
Timing for main: time 2016-02-05_17:52:40 on domain   4:     .44315 elapsed seconds
Timing for main: time 2016-02-05_17:52:40 on domain   2:    3.29164 elapsed seconds
Timing for main: time 2016-02-05_17:52:53 on domain   3:     .39235 elapsed seconds
Timing for main: time 2016-02-05_17:53:06 on domain   3:     .37137 elapsed seconds
Timing for main: time 2016-02-05_17:53:20 on domain   3:     .37069 elapsed seconds
Timing for main: time 2016-02-05_17:53:00 on domain   4:     .45592 elapsed seconds
Timing for main: time 2016-02-05_17:53:20 on domain   4:     .44378 elapsed seconds
Timing for main: time 2016-02-05_17:53:20 on domain   2:    3.24993 elapsed seconds
Timing for main: time 2016-02-05_17:53:33 on domain   3:     .39393 elapsed seconds
Timing for main: time 2016-02-05_17:53:46 on domain   3:     .36999 elapsed seconds
Timing for main: time 2016-02-05_17:54:00 on domain   3:     .37182 elapsed seconds
Timing for main: time 2016-02-05_17:53:40 on domain   4:     .45659 elapsed seconds
Timing for main: time 2016-02-05_17:54:00 on domain   4:     .44403 elapsed seconds
Timing for main: time 2016-02-05_17:54:00 on domain   2:    3.24988 elapsed seconds
Timing for main: time 2016-02-05_17:54:00 on domain   1:   10.42035 elapsed seconds
Timing for main: time 2016-02-05_17:54:13 on domain   3:     .39231 elapsed seconds
Timing for main: time 2016-02-05_17:54:26 on domain   3:     .37166 elapsed seconds
Timing for main: time 2016-02-05_17:54:40 on domain   3:     .37053 elapsed seconds
Timing for main: time 2016-02-05_17:54:20 on domain   4:     .47337 elapsed seconds
Timing for main: time 2016-02-05_17:54:40 on domain   4:     .48672 elapsed seconds
Timing for main: time 2016-02-05_17:54:40 on domain   2:    3.33110 elapsed seconds
Timing for main: time 2016-02-05_17:54:53 on domain   3:     .39169 elapsed seconds
Timing for main: time 2016-02-05_17:55:06 on domain   3:     .37350 elapsed seconds
Timing for main: time 2016-02-05_17:55:20 on domain   3:     .37094 elapsed seconds
Timing for main: time 2016-02-05_17:55:00 on domain   4:     .47271 elapsed seconds
Timing for main: time 2016-02-05_17:55:20 on domain   4:     .44482 elapsed seconds
Timing for main: time 2016-02-05_17:55:20 on domain   2:    3.26935 elapsed seconds
Timing for main: time 2016-02-05_17:55:33 on domain   3:     .39299 elapsed seconds
Timing for main: time 2016-02-05_17:55:46 on domain   3:     .37217 elapsed seconds
Timing for main: time 2016-02-05_17:56:00 on domain   3:     .37126 elapsed seconds
Timing for main: time 2016-02-05_17:55:40 on domain   4:     .45463 elapsed seconds
Timing for main: time 2016-02-05_17:56:00 on domain   4:     .44397 elapsed seconds
Timing for main: time 2016-02-05_17:56:00 on domain   2:    3.25159 elapsed seconds
Timing for main: time 2016-02-05_17:56:00 on domain   1:   10.46972 elapsed seconds
Timing for main: time 2016-02-05_17:56:13 on domain   3:     .39189 elapsed seconds
Timing for main: time 2016-02-05_17:56:26 on domain   3:     .37146 elapsed seconds
Timing for main: time 2016-02-05_17:56:40 on domain   3:     .37289 elapsed seconds
Timing for main: time 2016-02-05_17:56:20 on domain   4:     .45406 elapsed seconds
Timing for main: time 2016-02-05_17:56:40 on domain   4:     .44673 elapsed seconds
Timing for main: time 2016-02-05_17:56:40 on domain   2:    3.27058 elapsed seconds
Timing for main: time 2016-02-05_17:56:53 on domain   3:     .39191 elapsed seconds
Timing for main: time 2016-02-05_17:57:06 on domain   3:     .37158 elapsed seconds
Timing for main: time 2016-02-05_17:57:20 on domain   3:     .37110 elapsed seconds
Timing for main: time 2016-02-05_17:57:00 on domain   4:     .45620 elapsed seconds
Timing for main: time 2016-02-05_17:57:20 on domain   4:     .44535 elapsed seconds
Timing for main: time 2016-02-05_17:57:20 on domain   2:    3.27053 elapsed seconds
Timing for main: time 2016-02-05_17:57:33 on domain   3:     .39335 elapsed seconds
Timing for main: time 2016-02-05_17:57:46 on domain   3:     .38663 elapsed seconds
Timing for main: time 2016-02-05_17:58:00 on domain   3:     .37124 elapsed seconds
Timing for main: time 2016-02-05_17:57:40 on domain   4:     .45876 elapsed seconds
Timing for main: time 2016-02-05_17:58:00 on domain   4:     .44366 elapsed seconds
Timing for main: time 2016-02-05_17:58:00 on domain   2:    3.26855 elapsed seconds
Timing for main: time 2016-02-05_17:58:00 on domain   1:   10.43160 elapsed seconds
  photolysis_driver: called for domain  1
Timing for main: time 2016-02-05_17:58:13 on domain   3:     .39224 elapsed seconds
Timing for main: time 2016-02-05_17:58:26 on domain   3:     .37057 elapsed seconds
Timing for main: time 2016-02-05_17:58:40 on domain   3:     .37520 elapsed seconds
Timing for main: time 2016-02-05_17:58:20 on domain   4:     .45598 elapsed seconds
Timing for main: time 2016-02-05_17:58:40 on domain   4:     .44366 elapsed seconds
Timing for main: time 2016-02-05_17:58:40 on domain   2:    3.27725 elapsed seconds
Timing for main: time 2016-02-05_17:58:53 on domain   3:     .39262 elapsed seconds
Timing for main: time 2016-02-05_17:59:06 on domain   3:     .37021 elapsed seconds
Timing for main: time 2016-02-05_17:59:20 on domain   3:     .37179 elapsed seconds
Timing for main: time 2016-02-05_17:59:00 on domain   4:     .45732 elapsed seconds
Timing for main: time 2016-02-05_17:59:20 on domain   4:     .44550 elapsed seconds
Timing for main: time 2016-02-05_17:59:20 on domain   2:    3.25096 elapsed seconds
  photolysis_driver: called for domain  2
Timing for main: time 2016-02-05_17:59:33 on domain   3:     .39208 elapsed seconds
Timing for main: time 2016-02-05_17:59:46 on domain   3:     .36963 elapsed seconds
  photolysis_driver: called for domain  3
Timing for main: time 2016-02-05_18:00:00 on domain   3:    1.97405 elapsed seconds
Timing for Writing wrfout_d03_2016-02-05_18:00:00 for domain        3:    2.19948 elapsed seconds
Timing for main: time 2016-02-05_17:59:40 on domain   4:     .52525 elapsed seconds
  photolysis_driver: called for domain  4
Timing for main: time 2016-02-05_18:00:00 on domain   4:    2.38790 elapsed seconds
Timing for Writing wrfout_d04_2016-02-05_18:00:00 for domain        4:    2.46215 elapsed seconds
Timing for main: time 2016-02-05_18:00:00 on domain   2:   13.59472 elapsed seconds
Timing for Writing wrfout_d02_2016-02-05_18:00:00 for domain        2:    3.83294 elapsed seconds
Timing for main: time 2016-02-05_18:00:00 on domain   1:   25.62516 elapsed seconds
Timing for Writing wrfout_d01_2016-02-05_18:00:00 for domain        1:    2.60192 elapsed seconds
 d01 2016-02-05_18:00:00 wrf: SUCCESS COMPLETE WRF
