taskid: 0 hostname: p10a51.pbm.ihost.com
  Ntasks in X  14 , ntasks in Y  20
 Setting blank km_opt entries to domain #1 values.
  --> The km_opt entry in the namelist.input is now max_domains.
 Setting blank diff_opt entries to domain #1 values.
  --> The diff_opt entry in the namelist.input is now max_domains.
 --- WARNING: traj_opt is zero, but num_traj is not zero; setting num_traj to zero.
 --- NOTE: hypsometric_opt is 2, setting adjust_heights = F
 --- NOTE: sst_update is 0, setting io_form_auxinput4 = 0 and auxinput4_interval = 0 for all domains
 --- NOTE: sst_update is 0, setting io_form_auxinput4 = 0 and auxinput4_interval = 0 for all domains
 --- NOTE: sst_update is 0, setting io_form_auxinput4 = 0 and auxinput4_interval = 0 for all domains
 --- NOTE: sst_update is 0, setting io_form_auxinput4 = 0 and auxinput4_interval = 0 for all domains
 --- NOTE: grid_fdda is 0 for domain      1, setting gfdda interval and ending time to 0 for that domain.
 --- NOTE: both grid_sfdda and pxlsm_soil_nudge are 0 for domain      1, setting sgfdda interval and ending time to 0 for that domain.
 --- NOTE: obs_nudge_opt is 0 for domain      1, setting obs nudging interval and ending time to 0 for that domain.
 --- NOTE: grid_fdda is 0 for domain      2, setting gfdda interval and ending time to 0 for that domain.
 --- NOTE: both grid_sfdda and pxlsm_soil_nudge are 0 for domain      2, setting sgfdda interval and ending time to 0 for that domain.
 --- NOTE: obs_nudge_opt is 0 for domain      2, setting obs nudging interval and ending time to 0 for that domain.
 --- NOTE: grid_fdda is 0 for domain      3, setting gfdda interval and ending time to 0 for that domain.
 --- NOTE: both grid_sfdda and pxlsm_soil_nudge are 0 for domain      3, setting sgfdda interval and ending time to 0 for that domain.
 --- NOTE: obs_nudge_opt is 0 for domain      3, setting obs nudging interval and ending time to 0 for that domain.
 --- NOTE: grid_fdda is 0 for domain      4, setting gfdda interval and ending time to 0 for that domain.
 --- NOTE: both grid_sfdda and pxlsm_soil_nudge are 0 for domain      4, setting sgfdda interval and ending time to 0 for that domain.
 --- NOTE: obs_nudge_opt is 0 for domain      4, setting obs nudging interval and ending time to 0 for that domain.
 bl_pbl_physics /= 4, implies mfshconv must be 0, resetting
 --- NOTE: num_soil_layers has been set to      4
 WRF V3.6 MODEL
  *************************************
  Parent domain
  ids,ide,jds,jde  1 271 1 181
  ims,ime,jms,jme  -4 27 -4 16
  ips,ipe,jps,jpe  1 20 1 9
  *************************************
 DYNAMICS OPTION: Eulerian Mass Coordinate
    alloc_space_field: domain  1 ,  69547012  bytes allocated
   med_initialdata_input: calling input_input
Timing for processing wrfinput file (stream 0) for domain        1:    3.92012 elapsed seconds
 INPUT LandUse = "USGS"
  LANDUSE TYPE = "USGS" FOUND 33  CATEGORIES 2  SEASONS WATER CATEGORY =  16  SNOW CATEGORY =  24
 INITIALIZE THREE Noah LSM RELATED TABLES
  LANDUSE TYPE = USGS FOUND 27  CATEGORIES
  INPUT SOIL TEXTURE CLASSIFICATION = STAS
  SOIL TEXTURE CLASSIFICATION = STAS FOUND 19  CATEGORIES
 *********************************************************************
 *             PROGRAM:WRF/CHEM V3.6 MODEL
 *                                                                   *
 *    PLEASE REPORT ANY BUGS TO WRF/CHEM HELP at                     *
 *                                                                   *
 *              wrfchemhelp.gsd@noaa.gov                             *
 *                                                                   *
 *********************************************************************
 WARNING: dust option 1 currently works only with the GOCART aerosol option.
 WARNING: sea salt option 1 currently works only with the GOCART aerosol option.
  *************************************
  Nesting domain
  ids,ide,jds,jde  1 361 1 253
  ims,ime,jms,jme  -4 36 -4 24
  ips,ipe,jps,jpe  1 26 1 13
  INTERMEDIATE domain
  ids,ide,jds,jde  74 199 47 136
  ims,ime,jms,jme  69 94 42 62
  ips,ipe,jps,jpe  72 84 45 52
  *************************************
 d01 2016-02-05_12:00:00  alloc_space_field: domain  2 ,  119469088  bytes allocated
 d01 2016-02-05_12:00:00 *** Initializing nest domain # 2 from an input file. ***
 d01 2016-02-05_12:00:00 med_initialdata_input: calling input_input
Timing for processing wrfinput file (stream 0) for domain        2:    6.29007 elapsed seconds
 INPUT LandUse = "USGS"
  LANDUSE TYPE = "USGS" FOUND 33  CATEGORIES 2  SEASONS WATER CATEGORY =  16  SNOW CATEGORY =  24
 INITIALIZE THREE Noah LSM RELATED TABLES
  LANDUSE TYPE = USGS FOUND 27  CATEGORIES
  INPUT SOIL TEXTURE CLASSIFICATION = STAS
  SOIL TEXTURE CLASSIFICATION = STAS FOUND 19  CATEGORIES
 *********************************************************************
 *             PROGRAM:WRF/CHEM V3.6 MODEL
 *                                                                   *
 *    PLEASE REPORT ANY BUGS TO WRF/CHEM HELP at                     *
 *                                                                   *
 *              wrfchemhelp.gsd@noaa.gov                             *
 *                                                                   *
 *********************************************************************
 WARNING: dust option 1 currently works only with the GOCART aerosol option.
 WARNING: sea salt option 1 currently works only with the GOCART aerosol option.
 INPUT LandUse = "USGS"
  LANDUSE TYPE = "USGS" FOUND 33  CATEGORIES 2  SEASONS WATER CATEGORY =  16  SNOW CATEGORY =  24
 INITIALIZE THREE Noah LSM RELATED TABLES
  LANDUSE TYPE = USGS FOUND 27  CATEGORIES
  INPUT SOIL TEXTURE CLASSIFICATION = STAS
  SOIL TEXTURE CLASSIFICATION = STAS FOUND 19  CATEGORIES
 *********************************************************************
 *             PROGRAM:WRF/CHEM V3.6 MODEL
 *                                                                   *
 *    PLEASE REPORT ANY BUGS TO WRF/CHEM HELP at                     *
 *                                                                   *
 *              wrfchemhelp.gsd@noaa.gov                             *
 *                                                                   *
 *********************************************************************
 WARNING: dust option 1 currently works only with the GOCART aerosol option.
 WARNING: sea salt option 1 currently works only with the GOCART aerosol option.
 INPUT LandUse = "USGS"
  LANDUSE TYPE = "USGS" FOUND 33  CATEGORIES 2  SEASONS WATER CATEGORY =  16  SNOW CATEGORY =  24
 INITIALIZE THREE Noah LSM RELATED TABLES
  LANDUSE TYPE = USGS FOUND 27  CATEGORIES
  INPUT SOIL TEXTURE CLASSIFICATION = STAS
  SOIL TEXTURE CLASSIFICATION = STAS FOUND 19  CATEGORIES
 *********************************************************************
 *             PROGRAM:WRF/CHEM V3.6 MODEL
 *                                                                   *
 *    PLEASE REPORT ANY BUGS TO WRF/CHEM HELP at                     *
 *                                                                   *
 *              wrfchemhelp.gsd@noaa.gov                             *
 *                                                                   *
 *********************************************************************
 WARNING: dust option 1 currently works only with the GOCART aerosol option.
 WARNING: sea salt option 1 currently works only with the GOCART aerosol option.
Timing for Writing wrfout_d01_2016-02-05_12:00:00 for domain        1:    2.01660 elapsed seconds
  mediation_integrate: med_read_wrf_chem_emissions: Open file wrfchemi_12z_d01
  HOURLY EMISSIONS UPDATE TIME         .0        .0
 mediation_integrate: med_read_wrf_chem_emissions: Read emissions for time 2016-02-05_12:00:00
 **WARNING** Time in input file not being checked **WARNING**
Timing for processing lateral boundary for domain        1:    3.24514 elapsed seconds
  Tile Strategy is not specified. Assuming 1D-Y
 WRF TILE   1 IS      1 IE     20 JS      1 JE      9
 WRF NUMBER OF TILES =   1
  photolysis_driver: called for domain  1
  *************************************
  Nesting domain
  ids,ide,jds,jde  1 307 1 241
  ims,ime,jms,jme  -4 33 -4 24
  ips,ipe,jps,jpe  1 22 1 12
  INTERMEDIATE domain
  ids,ide,jds,jde  124 231 35 120
  ims,ime,jms,jme  119 142 30 50
  ips,ipe,jps,jpe  122 132 33 40
  *************************************
 d02 2016-02-05_12:00:00  alloc_space_field: domain  3 ,  111002184  bytes allocated
 d02 2016-02-05_12:00:00  alloc_space_field: domain  3 ,  6348384  bytes allocated
 d02 2016-02-05_12:00:00 *** Initializing nest domain # 3 from an input file. ***
 d02 2016-02-05_12:00:00 med_initialdata_input: calling input_input
Timing for processing wrfinput file (stream 0) for domain        3:    5.17026 elapsed seconds
 INPUT LandUse = "USGS"
  LANDUSE TYPE = "USGS" FOUND 33  CATEGORIES 2  SEASONS WATER CATEGORY =  16  SNOW CATEGORY =  24
 INITIALIZE THREE Noah LSM RELATED TABLES
  LANDUSE TYPE = USGS FOUND 27  CATEGORIES
  INPUT SOIL TEXTURE CLASSIFICATION = STAS
  SOIL TEXTURE CLASSIFICATION = STAS FOUND 19  CATEGORIES
 *********************************************************************
 *             PROGRAM:WRF/CHEM V3.6 MODEL
 *                                                                   *
 *    PLEASE REPORT ANY BUGS TO WRF/CHEM HELP at                     *
 *                                                                   *
 *              wrfchemhelp.gsd@noaa.gov                             *
 *                                                                   *
 *********************************************************************
 WARNING: dust option 1 currently works only with the GOCART aerosol option.
 WARNING: sea salt option 1 currently works only with the GOCART aerosol option.
 INPUT LandUse = "USGS"
  LANDUSE TYPE = "USGS" FOUND 33  CATEGORIES 2  SEASONS WATER CATEGORY =  16  SNOW CATEGORY =  24
 INITIALIZE THREE Noah LSM RELATED TABLES
  LANDUSE TYPE = USGS FOUND 27  CATEGORIES
  INPUT SOIL TEXTURE CLASSIFICATION = STAS
  SOIL TEXTURE CLASSIFICATION = STAS FOUND 19  CATEGORIES
 *********************************************************************
 *             PROGRAM:WRF/CHEM V3.6 MODEL
 *                                                                   *
 *    PLEASE REPORT ANY BUGS TO WRF/CHEM HELP at                     *
 *                                                                   *
 *              wrfchemhelp.gsd@noaa.gov                             *
 *                                                                   *
 *********************************************************************
 WARNING: dust option 1 currently works only with the GOCART aerosol option.
 WARNING: sea salt option 1 currently works only with the GOCART aerosol option.
 INPUT LandUse = "USGS"
  LANDUSE TYPE = "USGS" FOUND 33  CATEGORIES 2  SEASONS WATER CATEGORY =  16  SNOW CATEGORY =  24
 INITIALIZE THREE Noah LSM RELATED TABLES
  LANDUSE TYPE = USGS FOUND 27  CATEGORIES
  INPUT SOIL TEXTURE CLASSIFICATION = STAS
  SOIL TEXTURE CLASSIFICATION = STAS FOUND 19  CATEGORIES
 *********************************************************************
 *             PROGRAM:WRF/CHEM V3.6 MODEL
 *                                                                   *
 *    PLEASE REPORT ANY BUGS TO WRF/CHEM HELP at                     *
 *                                                                   *
 *              wrfchemhelp.gsd@noaa.gov                             *
 *                                                                   *
 *********************************************************************
 WARNING: dust option 1 currently works only with the GOCART aerosol option.
 WARNING: sea salt option 1 currently works only with the GOCART aerosol option.
  *************************************
  Nesting domain
  ids,ide,jds,jde  1 217 1 388
  ims,ime,jms,jme  -4 27 -4 30
  ips,ipe,jps,jpe  1 16 1 20
  INTERMEDIATE domain
  ids,ide,jds,jde  225 302 83 217
  ims,ime,jms,jme  220 241 78 101
  ips,ipe,jps,jpe  223 231 81 91
  *************************************
 d02 2016-02-05_12:00:00  alloc_space_field: domain  4 ,  112707920  bytes allocated
 d02 2016-02-05_12:00:00 *** Initializing nest domain # 4 from an input file. ***
 d02 2016-02-05_12:00:00 med_initialdata_input: calling input_input
Timing for processing wrfinput file (stream 0) for domain        4:    6.19426 elapsed seconds
 INPUT LandUse = "USGS"
  LANDUSE TYPE = "USGS" FOUND 33  CATEGORIES 2  SEASONS WATER CATEGORY =  16  SNOW CATEGORY =  24
 INITIALIZE THREE Noah LSM RELATED TABLES
  LANDUSE TYPE = USGS FOUND 27  CATEGORIES
  INPUT SOIL TEXTURE CLASSIFICATION = STAS
  SOIL TEXTURE CLASSIFICATION = STAS FOUND 19  CATEGORIES
 *********************************************************************
 *             PROGRAM:WRF/CHEM V3.6 MODEL
 *                                                                   *
 *    PLEASE REPORT ANY BUGS TO WRF/CHEM HELP at                     *
 *                                                                   *
 *              wrfchemhelp.gsd@noaa.gov                             *
 *                                                                   *
 *********************************************************************
 WARNING: dust option 1 currently works only with the GOCART aerosol option.
 WARNING: sea salt option 1 currently works only with the GOCART aerosol option.
 INPUT LandUse = "USGS"
  LANDUSE TYPE = "USGS" FOUND 33  CATEGORIES 2  SEASONS WATER CATEGORY =  16  SNOW CATEGORY =  24
 INITIALIZE THREE Noah LSM RELATED TABLES
  LANDUSE TYPE = USGS FOUND 27  CATEGORIES
  INPUT SOIL TEXTURE CLASSIFICATION = STAS
  SOIL TEXTURE CLASSIFICATION = STAS FOUND 19  CATEGORIES
 *********************************************************************
 *             PROGRAM:WRF/CHEM V3.6 MODEL
 *                                                                   *
 *    PLEASE REPORT ANY BUGS TO WRF/CHEM HELP at                     *
 *                                                                   *
 *              wrfchemhelp.gsd@noaa.gov                             *
 *                                                                   *
 *********************************************************************
 WARNING: dust option 1 currently works only with the GOCART aerosol option.
 WARNING: sea salt option 1 currently works only with the GOCART aerosol option.
 INPUT LandUse = "USGS"
  LANDUSE TYPE = "USGS" FOUND 33  CATEGORIES 2  SEASONS WATER CATEGORY =  16  SNOW CATEGORY =  24
 INITIALIZE THREE Noah LSM RELATED TABLES
  LANDUSE TYPE = USGS FOUND 27  CATEGORIES
  INPUT SOIL TEXTURE CLASSIFICATION = STAS
  SOIL TEXTURE CLASSIFICATION = STAS FOUND 19  CATEGORIES
 *********************************************************************
 *             PROGRAM:WRF/CHEM V3.6 MODEL
 *                                                                   *
 *    PLEASE REPORT ANY BUGS TO WRF/CHEM HELP at                     *
 *                                                                   *
 *              wrfchemhelp.gsd@noaa.gov                             *
 *                                                                   *
 *********************************************************************
 WARNING: dust option 1 currently works only with the GOCART aerosol option.
 WARNING: sea salt option 1 currently works only with the GOCART aerosol option.
Timing for Writing wrfout_d02_2016-02-05_12:00:00 for domain        2:    2.35873 elapsed seconds
  mediation_integrate: med_read_wrf_chem_emissions: Open file wrfchemi_12z_d02
  HOURLY EMISSIONS UPDATE TIME         .0        .0
 mediation_integrate: med_read_wrf_chem_emissions: Read emissions for time 2016-02-05_12:00:00
 **WARNING** Time in input file not being checked **WARNING**
  Tile Strategy is not specified. Assuming 1D-Y
 WRF TILE   1 IS      1 IE     26 JS      1 JE     13
 WRF NUMBER OF TILES =   1
  photolysis_driver: called for domain  2
Timing for Writing wrfout_d03_2016-02-05_12:00:00 for domain        3:    2.20625 elapsed seconds
  mediation_integrate: med_read_wrf_chem_emissions: Open file wrfchemi_12z_d03
  HOURLY EMISSIONS UPDATE TIME         .0        .0
 mediation_integrate: med_read_wrf_chem_emissions: Read emissions for time 2016-02-05_12:00:00
 **WARNING** Time in input file not being checked **WARNING**
  Tile Strategy is not specified. Assuming 1D-Y
 WRF TILE   1 IS      1 IE     22 JS      1 JE     12
 WRF NUMBER OF TILES =   1
  photolysis_driver: called for domain  3
Timing for main: time 2016-02-05_12:00:13 on domain   3:    4.59092 elapsed seconds
Timing for main: time 2016-02-05_12:00:26 on domain   3:     .10037 elapsed seconds
Timing for main: time 2016-02-05_12:00:40 on domain   3:     .11487 elapsed seconds
Timing for Writing wrfout_d04_2016-02-05_12:00:00 for domain        4:    2.35384 elapsed seconds
  mediation_integrate: med_read_wrf_chem_emissions: Open file wrfchemi_12z_d04
  HOURLY EMISSIONS UPDATE TIME         .0        .0
 mediation_integrate: med_read_wrf_chem_emissions: Read emissions for time 2016-02-05_12:00:00
 **WARNING** Time in input file not being checked **WARNING**
  Tile Strategy is not specified. Assuming 1D-Y
 WRF TILE   1 IS      1 IE     16 JS      1 JE     20
 WRF NUMBER OF TILES =   1
  photolysis_driver: called for domain  4
Timing for main: time 2016-02-05_12:00:20 on domain   4:    4.89112 elapsed seconds
Timing for main: time 2016-02-05_12:00:40 on domain   4:     .12415 elapsed seconds
Timing for main: time 2016-02-05_12:00:40 on domain   2:   29.67297 elapsed seconds
Timing for main: time 2016-02-05_12:00:53 on domain   3:     .12289 elapsed seconds
Timing for main: time 2016-02-05_12:01:06 on domain   3:     .11424 elapsed seconds
Timing for main: time 2016-02-05_12:01:20 on domain   3:     .11464 elapsed seconds
Timing for main: time 2016-02-05_12:01:00 on domain   4:     .15590 elapsed seconds
Timing for main: time 2016-02-05_12:01:20 on domain   4:     .13599 elapsed seconds
Timing for main: time 2016-02-05_12:01:20 on domain   2:    1.17339 elapsed seconds
Timing for main: time 2016-02-05_12:01:33 on domain   3:     .12626 elapsed seconds
Timing for main: time 2016-02-05_12:01:46 on domain   3:     .12002 elapsed seconds
Timing for main: time 2016-02-05_12:02:00 on domain   3:     .11863 elapsed seconds
Timing for main: time 2016-02-05_12:01:40 on domain   4:     .17380 elapsed seconds
Timing for main: time 2016-02-05_12:02:00 on domain   4:     .15307 elapsed seconds
Timing for main: time 2016-02-05_12:02:00 on domain   2:    1.24504 elapsed seconds
Timing for main: time 2016-02-05_12:02:00 on domain   1:   47.82960 elapsed seconds
Timing for main: time 2016-02-05_12:02:13 on domain   3:     .12716 elapsed seconds
Timing for main: time 2016-02-05_12:02:26 on domain   3:     .12225 elapsed seconds
Timing for main: time 2016-02-05_12:02:40 on domain   3:     .12041 elapsed seconds
Timing for main: time 2016-02-05_12:02:20 on domain   4:     .14751 elapsed seconds
Timing for main: time 2016-02-05_12:02:40 on domain   4:     .13722 elapsed seconds
Timing for main: time 2016-02-05_12:02:40 on domain   2:    1.21162 elapsed seconds
Timing for main: time 2016-02-05_12:02:53 on domain   3:     .12319 elapsed seconds
Timing for main: time 2016-02-05_12:03:06 on domain   3:     .11824 elapsed seconds
Timing for main: time 2016-02-05_12:03:20 on domain   3:     .11393 elapsed seconds
Timing for main: time 2016-02-05_12:03:00 on domain   4:     .14780 elapsed seconds
Timing for main: time 2016-02-05_12:03:20 on domain   4:     .13587 elapsed seconds
Timing for main: time 2016-02-05_12:03:20 on domain   2:    1.19279 elapsed seconds
Timing for main: time 2016-02-05_12:03:33 on domain   3:     .12486 elapsed seconds
Timing for main: time 2016-02-05_12:03:46 on domain   3:     .11638 elapsed seconds
Timing for main: time 2016-02-05_12:04:00 on domain   3:     .11518 elapsed seconds
Timing for main: time 2016-02-05_12:03:40 on domain   4:     .14651 elapsed seconds
Timing for main: time 2016-02-05_12:04:00 on domain   4:     .14753 elapsed seconds
Timing for main: time 2016-02-05_12:04:00 on domain   2:    1.20995 elapsed seconds
Timing for main: time 2016-02-05_12:04:00 on domain   1:    3.87980 elapsed seconds
Timing for main: time 2016-02-05_12:04:13 on domain   3:     .12425 elapsed seconds
Timing for main: time 2016-02-05_12:04:26 on domain   3:     .13410 elapsed seconds
Timing for main: time 2016-02-05_12:04:40 on domain   3:     .11978 elapsed seconds
Timing for main: time 2016-02-05_12:04:20 on domain   4:     .14882 elapsed seconds
Timing for main: time 2016-02-05_12:04:40 on domain   4:     .14574 elapsed seconds
Timing for main: time 2016-02-05_12:04:40 on domain   2:    1.22828 elapsed seconds
Timing for main: time 2016-02-05_12:04:53 on domain   3:     .12568 elapsed seconds
Timing for main: time 2016-02-05_12:05:06 on domain   3:     .12506 elapsed seconds
Timing for main: time 2016-02-05_12:05:20 on domain   3:     .11728 elapsed seconds
Timing for main: time 2016-02-05_12:05:00 on domain   4:     .15406 elapsed seconds
Timing for main: time 2016-02-05_12:05:20 on domain   4:     .14278 elapsed seconds
Timing for main: time 2016-02-05_12:05:20 on domain   2:    1.23198 elapsed seconds
Timing for main: time 2016-02-05_12:05:33 on domain   3:     .12951 elapsed seconds
Timing for main: time 2016-02-05_12:05:46 on domain   3:     .12051 elapsed seconds
Timing for main: time 2016-02-05_12:06:00 on domain   3:     .12502 elapsed seconds
Timing for main: time 2016-02-05_12:05:40 on domain   4:     .15872 elapsed seconds
Timing for main: time 2016-02-05_12:06:00 on domain   4:     .13825 elapsed seconds
Timing for main: time 2016-02-05_12:06:00 on domain   2:    1.22956 elapsed seconds
Timing for main: time 2016-02-05_12:06:00 on domain   1:    3.98376 elapsed seconds
Timing for main: time 2016-02-05_12:06:13 on domain   3:     .12777 elapsed seconds
Timing for main: time 2016-02-05_12:06:26 on domain   3:     .12044 elapsed seconds
Timing for main: time 2016-02-05_12:06:40 on domain   3:     .12823 elapsed seconds
Timing for main: time 2016-02-05_12:06:20 on domain   4:     .14854 elapsed seconds
Timing for main: time 2016-02-05_12:06:40 on domain   4:     .14146 elapsed seconds
Timing for main: time 2016-02-05_12:06:40 on domain   2:    1.26446 elapsed seconds
Timing for main: time 2016-02-05_12:06:53 on domain   3:     .12368 elapsed seconds
Timing for main: time 2016-02-05_12:07:06 on domain   3:     .11429 elapsed seconds
Timing for main: time 2016-02-05_12:07:20 on domain   3:     .11453 elapsed seconds
Timing for main: time 2016-02-05_12:07:00 on domain   4:     .14577 elapsed seconds
Timing for main: time 2016-02-05_12:07:20 on domain   4:     .13702 elapsed seconds
Timing for main: time 2016-02-05_12:07:20 on domain   2:    1.18750 elapsed seconds
Timing for main: time 2016-02-05_12:07:33 on domain   3:     .12499 elapsed seconds
Timing for main: time 2016-02-05_12:07:46 on domain   3:     .11465 elapsed seconds
Timing for main: time 2016-02-05_12:08:00 on domain   3:     .11732 elapsed seconds
Timing for main: time 2016-02-05_12:07:40 on domain   4:     .14530 elapsed seconds
Timing for main: time 2016-02-05_12:08:00 on domain   4:     .13755 elapsed seconds
Timing for main: time 2016-02-05_12:08:00 on domain   2:    1.19419 elapsed seconds
Timing for main: time 2016-02-05_12:08:00 on domain   1:    3.92936 elapsed seconds
Timing for main: time 2016-02-05_12:08:13 on domain   3:     .12518 elapsed seconds
Timing for main: time 2016-02-05_12:08:26 on domain   3:     .11439 elapsed seconds
Timing for main: time 2016-02-05_12:08:40 on domain   3:     .11488 elapsed seconds
Timing for main: time 2016-02-05_12:08:20 on domain   4:     .14544 elapsed seconds
Timing for main: time 2016-02-05_12:08:40 on domain   4:     .13768 elapsed seconds
Timing for main: time 2016-02-05_12:08:40 on domain   2:    1.18741 elapsed seconds
Timing for main: time 2016-02-05_12:08:53 on domain   3:     .12319 elapsed seconds
Timing for main: time 2016-02-05_12:09:06 on domain   3:     .12873 elapsed seconds
Timing for main: time 2016-02-05_12:09:20 on domain   3:     .11622 elapsed seconds
Timing for main: time 2016-02-05_12:09:00 on domain   4:     .14583 elapsed seconds
Timing for main: time 2016-02-05_12:09:20 on domain   4:     .13820 elapsed seconds
Timing for main: time 2016-02-05_12:09:20 on domain   2:    1.20710 elapsed seconds
Timing for main: time 2016-02-05_12:09:33 on domain   3:     .12359 elapsed seconds
Timing for main: time 2016-02-05_12:09:46 on domain   3:     .11448 elapsed seconds
Timing for main: time 2016-02-05_12:10:00 on domain   3:     .11404 elapsed seconds
Timing for main: time 2016-02-05_12:09:40 on domain   4:     .14598 elapsed seconds
Timing for main: time 2016-02-05_12:10:00 on domain   4:     .14400 elapsed seconds
Timing for main: time 2016-02-05_12:10:00 on domain   2:    1.19541 elapsed seconds
Timing for main: time 2016-02-05_12:10:00 on domain   1:    3.86838 elapsed seconds
Timing for main: time 2016-02-05_12:10:13 on domain   3:     .12905 elapsed seconds
Timing for main: time 2016-02-05_12:10:26 on domain   3:     .11387 elapsed seconds
Timing for main: time 2016-02-05_12:10:40 on domain   3:     .11638 elapsed seconds
Timing for main: time 2016-02-05_12:10:20 on domain   4:     .14614 elapsed seconds
Timing for main: time 2016-02-05_12:10:40 on domain   4:     .14225 elapsed seconds
Timing for main: time 2016-02-05_12:10:40 on domain   2:    1.20336 elapsed seconds
Timing for main: time 2016-02-05_12:10:53 on domain   3:     .12344 elapsed seconds
Timing for main: time 2016-02-05_12:11:06 on domain   3:     .11443 elapsed seconds
Timing for main: time 2016-02-05_12:11:20 on domain   3:     .11449 elapsed seconds
Timing for main: time 2016-02-05_12:11:00 on domain   4:     .14503 elapsed seconds
Timing for main: time 2016-02-05_12:11:20 on domain   4:     .13884 elapsed seconds
Timing for main: time 2016-02-05_12:11:20 on domain   2:    1.20650 elapsed seconds
Timing for main: time 2016-02-05_12:11:33 on domain   3:     .12397 elapsed seconds
Timing for main: time 2016-02-05_12:11:46 on domain   3:     .11420 elapsed seconds
Timing for main: time 2016-02-05_12:12:00 on domain   3:     .11442 elapsed seconds
Timing for main: time 2016-02-05_12:11:40 on domain   4:     .14546 elapsed seconds
Timing for main: time 2016-02-05_12:12:00 on domain   4:     .13905 elapsed seconds
Timing for main: time 2016-02-05_12:12:00 on domain   2:    1.21217 elapsed seconds
Timing for main: time 2016-02-05_12:12:00 on domain   1:    3.90540 elapsed seconds
Timing for main: time 2016-02-05_12:12:13 on domain   3:     .12384 elapsed seconds
Timing for main: time 2016-02-05_12:12:26 on domain   3:     .11816 elapsed seconds
Timing for main: time 2016-02-05_12:12:40 on domain   3:     .12766 elapsed seconds
Timing for main: time 2016-02-05_12:12:20 on domain   4:     .15256 elapsed seconds
Timing for main: time 2016-02-05_12:12:40 on domain   4:     .14055 elapsed seconds
Timing for main: time 2016-02-05_12:12:40 on domain   2:    1.21748 elapsed seconds
Timing for main: time 2016-02-05_12:12:53 on domain   3:     .12393 elapsed seconds
Timing for main: time 2016-02-05_12:13:06 on domain   3:     .11428 elapsed seconds
Timing for main: time 2016-02-05_12:13:20 on domain   3:     .11424 elapsed seconds
Timing for main: time 2016-02-05_12:13:00 on domain   4:     .14544 elapsed seconds
Timing for main: time 2016-02-05_12:13:20 on domain   4:     .13760 elapsed seconds
Timing for main: time 2016-02-05_12:13:20 on domain   2:    1.18598 elapsed seconds
Timing for main: time 2016-02-05_12:13:33 on domain   3:     .12369 elapsed seconds
Timing for main: time 2016-02-05_12:13:46 on domain   3:     .11412 elapsed seconds
Timing for main: time 2016-02-05_12:14:00 on domain   3:     .12395 elapsed seconds
Timing for main: time 2016-02-05_12:13:40 on domain   4:     .14637 elapsed seconds
Timing for main: time 2016-02-05_12:14:00 on domain   4:     .13962 elapsed seconds
Timing for main: time 2016-02-05_12:14:00 on domain   2:    1.20096 elapsed seconds
Timing for main: time 2016-02-05_12:14:00 on domain   1:    3.88224 elapsed seconds
Timing for main: time 2016-02-05_12:14:13 on domain   3:     .12359 elapsed seconds
Timing for main: time 2016-02-05_12:14:26 on domain   3:     .11418 elapsed seconds
Timing for main: time 2016-02-05_12:14:40 on domain   3:     .11548 elapsed seconds
Timing for main: time 2016-02-05_12:14:20 on domain   4:     .14505 elapsed seconds
Timing for main: time 2016-02-05_12:14:40 on domain   4:     .13771 elapsed seconds
Timing for main: time 2016-02-05_12:14:40 on domain   2:    1.18602 elapsed seconds
Timing for main: time 2016-02-05_12:14:53 on domain   3:     .12362 elapsed seconds
Timing for main: time 2016-02-05_12:15:06 on domain   3:     .11435 elapsed seconds
Timing for main: time 2016-02-05_12:15:20 on domain   3:     .11940 elapsed seconds
Timing for main: time 2016-02-05_12:15:00 on domain   4:     .15561 elapsed seconds
Timing for main: time 2016-02-05_12:15:20 on domain   4:     .14036 elapsed seconds
Timing for main: time 2016-02-05_12:15:20 on domain   2:    1.20535 elapsed seconds
Timing for main: time 2016-02-05_12:15:33 on domain   3:     .14400 elapsed seconds
Timing for main: time 2016-02-05_12:15:46 on domain   3:     .17095 elapsed seconds
Timing for main: time 2016-02-05_12:16:00 on domain   3:     .13765 elapsed seconds
Timing for main: time 2016-02-05_12:15:40 on domain   4:     .14556 elapsed seconds
Timing for main: time 2016-02-05_12:16:00 on domain   4:     .13930 elapsed seconds
Timing for main: time 2016-02-05_12:16:00 on domain   2:    1.29572 elapsed seconds
Timing for main: time 2016-02-05_12:16:00 on domain   1:    3.96528 elapsed seconds
Timing for main: time 2016-02-05_12:16:13 on domain   3:     .12404 elapsed seconds
Timing for main: time 2016-02-05_12:16:26 on domain   3:     .11403 elapsed seconds
Timing for main: time 2016-02-05_12:16:40 on domain   3:     .11709 elapsed seconds
Timing for main: time 2016-02-05_12:16:20 on domain   4:     .14622 elapsed seconds
Timing for main: time 2016-02-05_12:16:40 on domain   4:     .13695 elapsed seconds
Timing for main: time 2016-02-05_12:16:40 on domain   2:    1.21738 elapsed seconds
Timing for main: time 2016-02-05_12:16:53 on domain   3:     .12397 elapsed seconds
Timing for main: time 2016-02-05_12:17:06 on domain   3:     .11422 elapsed seconds
Timing for main: time 2016-02-05_12:17:20 on domain   3:     .11405 elapsed seconds
Timing for main: time 2016-02-05_12:17:00 on domain   4:     .14526 elapsed seconds
Timing for main: time 2016-02-05_12:17:20 on domain   4:     .13761 elapsed seconds
Timing for main: time 2016-02-05_12:17:20 on domain   2:    1.19510 elapsed seconds
Timing for main: time 2016-02-05_12:17:33 on domain   3:     .12393 elapsed seconds
Timing for main: time 2016-02-05_12:17:46 on domain   3:     .11417 elapsed seconds
Timing for main: time 2016-02-05_12:18:00 on domain   3:     .11404 elapsed seconds
Timing for main: time 2016-02-05_12:17:40 on domain   4:     .14540 elapsed seconds
Timing for main: time 2016-02-05_12:18:00 on domain   4:     .13949 elapsed seconds
Timing for main: time 2016-02-05_12:18:00 on domain   2:    1.18865 elapsed seconds
Timing for main: time 2016-02-05_12:18:00 on domain   1:    3.88593 elapsed seconds
Timing for main: time 2016-02-05_12:18:13 on domain   3:     .12372 elapsed seconds
Timing for main: time 2016-02-05_12:18:26 on domain   3:     .12728 elapsed seconds
Timing for main: time 2016-02-05_12:18:40 on domain   3:     .11443 elapsed seconds
Timing for main: time 2016-02-05_12:18:20 on domain   4:     .14567 elapsed seconds
Timing for main: time 2016-02-05_12:18:40 on domain   4:     .13845 elapsed seconds
Timing for main: time 2016-02-05_12:18:40 on domain   2:    1.19926 elapsed seconds
Timing for main: time 2016-02-05_12:18:53 on domain   3:     .12385 elapsed seconds
Timing for main: time 2016-02-05_12:19:06 on domain   3:     .11404 elapsed seconds
Timing for main: time 2016-02-05_12:19:20 on domain   3:     .11581 elapsed seconds
Timing for main: time 2016-02-05_12:19:00 on domain   4:     .14547 elapsed seconds
Timing for main: time 2016-02-05_12:19:20 on domain   4:     .13772 elapsed seconds
Timing for main: time 2016-02-05_12:19:20 on domain   2:    1.18904 elapsed seconds
Timing for main: time 2016-02-05_12:19:33 on domain   3:     .12368 elapsed seconds
Timing for main: time 2016-02-05_12:19:46 on domain   3:     .11474 elapsed seconds
Timing for main: time 2016-02-05_12:20:00 on domain   3:     .11799 elapsed seconds
Timing for main: time 2016-02-05_12:19:40 on domain   4:     .14579 elapsed seconds
Timing for main: time 2016-02-05_12:20:00 on domain   4:     .15076 elapsed seconds
Timing for main: time 2016-02-05_12:20:00 on domain   2:    1.20540 elapsed seconds
Timing for main: time 2016-02-05_12:20:00 on domain   1:    3.87506 elapsed seconds
Timing for main: time 2016-02-05_12:20:13 on domain   3:     .12365 elapsed seconds
Timing for main: time 2016-02-05_12:20:26 on domain   3:     .11895 elapsed seconds
Timing for main: time 2016-02-05_12:20:40 on domain   3:     .11448 elapsed seconds
Timing for main: time 2016-02-05_12:20:20 on domain   4:     .14556 elapsed seconds
Timing for main: time 2016-02-05_12:20:40 on domain   4:     .13731 elapsed seconds
Timing for main: time 2016-02-05_12:20:40 on domain   2:    1.19313 elapsed seconds
Timing for main: time 2016-02-05_12:20:53 on domain   3:     .12347 elapsed seconds
Timing for main: time 2016-02-05_12:21:06 on domain   3:     .11401 elapsed seconds
Timing for main: time 2016-02-05_12:21:20 on domain   3:     .11392 elapsed seconds
Timing for main: time 2016-02-05_12:21:00 on domain   4:     .14544 elapsed seconds
Timing for main: time 2016-02-05_12:21:20 on domain   4:     .13750 elapsed seconds
Timing for main: time 2016-02-05_12:21:20 on domain   2:    1.19426 elapsed seconds
Timing for main: time 2016-02-05_12:21:33 on domain   3:     .14275 elapsed seconds
Timing for main: time 2016-02-05_12:21:46 on domain   3:     .16993 elapsed seconds
Timing for main: time 2016-02-05_12:22:00 on domain   3:     .14068 elapsed seconds
Timing for main: time 2016-02-05_12:21:40 on domain   4:     .14629 elapsed seconds
Timing for main: time 2016-02-05_12:22:00 on domain   4:     .13732 elapsed seconds
Timing for main: time 2016-02-05_12:22:00 on domain   2:    1.28933 elapsed seconds
Timing for main: time 2016-02-05_12:22:00 on domain   1:    3.95452 elapsed seconds
Timing for main: time 2016-02-05_12:22:13 on domain   3:     .12365 elapsed seconds
Timing for main: time 2016-02-05_12:22:26 on domain   3:     .11427 elapsed seconds
Timing for main: time 2016-02-05_12:22:40 on domain   3:     .11415 elapsed seconds
Timing for main: time 2016-02-05_12:22:20 on domain   4:     .14631 elapsed seconds
Timing for main: time 2016-02-05_12:22:40 on domain   4:     .13671 elapsed seconds
Timing for main: time 2016-02-05_12:22:40 on domain   2:    1.18467 elapsed seconds
Timing for main: time 2016-02-05_12:22:53 on domain   3:     .12388 elapsed seconds
Timing for main: time 2016-02-05_12:23:06 on domain   3:     .11408 elapsed seconds
Timing for main: time 2016-02-05_12:23:20 on domain   3:     .12991 elapsed seconds
Timing for main: time 2016-02-05_12:23:00 on domain   4:     .14563 elapsed seconds
Timing for main: time 2016-02-05_12:23:20 on domain   4:     .13755 elapsed seconds
Timing for main: time 2016-02-05_12:23:20 on domain   2:    1.20396 elapsed seconds
Timing for main: time 2016-02-05_12:23:33 on domain   3:     .12361 elapsed seconds
Timing for main: time 2016-02-05_12:23:46 on domain   3:     .11438 elapsed seconds
Timing for main: time 2016-02-05_12:24:00 on domain   3:     .11587 elapsed seconds
Timing for main: time 2016-02-05_12:23:40 on domain   4:     .14583 elapsed seconds
Timing for main: time 2016-02-05_12:24:00 on domain   4:     .13765 elapsed seconds
Timing for main: time 2016-02-05_12:24:00 on domain   2:    1.19026 elapsed seconds
Timing for main: time 2016-02-05_12:24:00 on domain   1:    3.86175 elapsed seconds
Timing for main: time 2016-02-05_12:24:13 on domain   3:     .12337 elapsed seconds
Timing for main: time 2016-02-05_12:24:26 on domain   3:     .11562 elapsed seconds
Timing for main: time 2016-02-05_12:24:40 on domain   3:     .11676 elapsed seconds
Timing for main: time 2016-02-05_12:24:20 on domain   4:     .14554 elapsed seconds
Timing for main: time 2016-02-05_12:24:40 on domain   4:     .13771 elapsed seconds
Timing for main: time 2016-02-05_12:24:40 on domain   2:    1.19049 elapsed seconds
Timing for main: time 2016-02-05_12:24:53 on domain   3:     .13602 elapsed seconds
Timing for main: time 2016-02-05_12:25:06 on domain   3:     .11429 elapsed seconds
Timing for main: time 2016-02-05_12:25:20 on domain   3:     .11420 elapsed seconds
Timing for main: time 2016-02-05_12:25:00 on domain   4:     .15200 elapsed seconds
Timing for main: time 2016-02-05_12:25:20 on domain   4:     .13909 elapsed seconds
Timing for main: time 2016-02-05_12:25:20 on domain   2:    1.20811 elapsed seconds
Timing for main: time 2016-02-05_12:25:33 on domain   3:     .12837 elapsed seconds
Timing for main: time 2016-02-05_12:25:46 on domain   3:     .11442 elapsed seconds
Timing for main: time 2016-02-05_12:26:00 on domain   3:     .11430 elapsed seconds
Timing for main: time 2016-02-05_12:25:40 on domain   4:     .14537 elapsed seconds
Timing for main: time 2016-02-05_12:26:00 on domain   4:     .13768 elapsed seconds
Timing for main: time 2016-02-05_12:26:00 on domain   2:    1.19220 elapsed seconds
Timing for main: time 2016-02-05_12:26:00 on domain   1:    3.86948 elapsed seconds
Timing for main: time 2016-02-05_12:26:13 on domain   3:     .12345 elapsed seconds
Timing for main: time 2016-02-05_12:26:26 on domain   3:     .11452 elapsed seconds
Timing for main: time 2016-02-05_12:26:40 on domain   3:     .11454 elapsed seconds
Timing for main: time 2016-02-05_12:26:20 on domain   4:     .14545 elapsed seconds
Timing for main: time 2016-02-05_12:26:40 on domain   4:     .13781 elapsed seconds
Timing for main: time 2016-02-05_12:26:40 on domain   2:    1.19328 elapsed seconds
Timing for main: time 2016-02-05_12:26:53 on domain   3:     .12337 elapsed seconds
Timing for main: time 2016-02-05_12:27:06 on domain   3:     .11618 elapsed seconds
Timing for main: time 2016-02-05_12:27:20 on domain   3:     .11494 elapsed seconds
Timing for main: time 2016-02-05_12:27:00 on domain   4:     .14567 elapsed seconds
Timing for main: time 2016-02-05_12:27:20 on domain   4:     .13885 elapsed seconds
Timing for main: time 2016-02-05_12:27:20 on domain   2:    1.19447 elapsed seconds
Timing for main: time 2016-02-05_12:27:33 on domain   3:     .12308 elapsed seconds
Timing for main: time 2016-02-05_12:27:46 on domain   3:     .11462 elapsed seconds
Timing for main: time 2016-02-05_12:28:00 on domain   3:     .11410 elapsed seconds
Timing for main: time 2016-02-05_12:27:40 on domain   4:     .14566 elapsed seconds
Timing for main: time 2016-02-05_12:28:00 on domain   4:     .13794 elapsed seconds
Timing for main: time 2016-02-05_12:28:00 on domain   2:    1.18688 elapsed seconds
Timing for main: time 2016-02-05_12:28:00 on domain   1:    3.85280 elapsed seconds
  photolysis_driver: called for domain  1
Timing for main: time 2016-02-05_12:28:13 on domain   3:     .12314 elapsed seconds
Timing for main: time 2016-02-05_12:28:26 on domain   3:     .11483 elapsed seconds
Timing for main: time 2016-02-05_12:28:40 on domain   3:     .11461 elapsed seconds
Timing for main: time 2016-02-05_12:28:20 on domain   4:     .14593 elapsed seconds
Timing for main: time 2016-02-05_12:28:40 on domain   4:     .13857 elapsed seconds
Timing for main: time 2016-02-05_12:28:40 on domain   2:    1.18700 elapsed seconds
Timing for main: time 2016-02-05_12:28:53 on domain   3:     .12316 elapsed seconds
Timing for main: time 2016-02-05_12:29:06 on domain   3:     .11535 elapsed seconds
Timing for main: time 2016-02-05_12:29:20 on domain   3:     .11433 elapsed seconds
Timing for main: time 2016-02-05_12:29:00 on domain   4:     .14548 elapsed seconds
Timing for main: time 2016-02-05_12:29:20 on domain   4:     .13783 elapsed seconds
Timing for main: time 2016-02-05_12:29:20 on domain   2:    1.18910 elapsed seconds
  photolysis_driver: called for domain  2
Timing for main: time 2016-02-05_12:29:33 on domain   3:     .12316 elapsed seconds
Timing for main: time 2016-02-05_12:29:46 on domain   3:     .11428 elapsed seconds
  photolysis_driver: called for domain  3
Timing for main: time 2016-02-05_12:30:00 on domain   3:     .60573 elapsed seconds
Timing for main: time 2016-02-05_12:29:40 on domain   4:     .14590 elapsed seconds
  photolysis_driver: called for domain  4
Timing for main: time 2016-02-05_12:30:00 on domain   4:     .74452 elapsed seconds
Timing for main: time 2016-02-05_12:30:00 on domain   2:    2.91327 elapsed seconds
Timing for main: time 2016-02-05_12:30:00 on domain   1:    5.95470 elapsed seconds
Timing for main: time 2016-02-05_12:30:13 on domain   3:     .22008 elapsed seconds
Timing for main: time 2016-02-05_12:30:26 on domain   3:     .11359 elapsed seconds
Timing for main: time 2016-02-05_12:30:40 on domain   3:     .12068 elapsed seconds
Timing for main: time 2016-02-05_12:30:20 on domain   4:     .26425 elapsed seconds
Timing for main: time 2016-02-05_12:30:40 on domain   4:     .13710 elapsed seconds
Timing for main: time 2016-02-05_12:30:40 on domain   2:    1.58285 elapsed seconds
Timing for main: time 2016-02-05_12:30:53 on domain   3:     .12276 elapsed seconds
Timing for main: time 2016-02-05_12:31:06 on domain   3:     .11460 elapsed seconds
Timing for main: time 2016-02-05_12:31:20 on domain   3:     .11604 elapsed seconds
Timing for main: time 2016-02-05_12:31:00 on domain   4:     .14574 elapsed seconds
Timing for main: time 2016-02-05_12:31:20 on domain   4:     .13826 elapsed seconds
Timing for main: time 2016-02-05_12:31:20 on domain   2:    1.18962 elapsed seconds
Timing for main: time 2016-02-05_12:31:33 on domain   3:     .12413 elapsed seconds
Timing for main: time 2016-02-05_12:31:46 on domain   3:     .11433 elapsed seconds
Timing for main: time 2016-02-05_12:32:00 on domain   3:     .11436 elapsed seconds
Timing for main: time 2016-02-05_12:31:40 on domain   4:     .14490 elapsed seconds
Timing for main: time 2016-02-05_12:32:00 on domain   4:     .13735 elapsed seconds
Timing for main: time 2016-02-05_12:32:00 on domain   2:    1.19348 elapsed seconds
Timing for main: time 2016-02-05_12:32:00 on domain   1:    4.33783 elapsed seconds
Timing for main: time 2016-02-05_12:32:13 on domain   3:     .12263 elapsed seconds
Timing for main: time 2016-02-05_12:32:26 on domain   3:     .11375 elapsed seconds
Timing for main: time 2016-02-05_12:32:40 on domain   3:     .11372 elapsed seconds
Timing for main: time 2016-02-05_12:32:20 on domain   4:     .14486 elapsed seconds
Timing for main: time 2016-02-05_12:32:40 on domain   4:     .13723 elapsed seconds
Timing for main: time 2016-02-05_12:32:40 on domain   2:    1.18224 elapsed seconds
Timing for main: time 2016-02-05_12:32:53 on domain   3:     .12275 elapsed seconds
Timing for main: time 2016-02-05_12:33:06 on domain   3:     .11503 elapsed seconds
Timing for main: time 2016-02-05_12:33:20 on domain   3:     .11387 elapsed seconds
Timing for main: time 2016-02-05_12:33:00 on domain   4:     .14489 elapsed seconds
Timing for main: time 2016-02-05_12:33:20 on domain   4:     .13736 elapsed seconds
Timing for main: time 2016-02-05_12:33:20 on domain   2:    1.19189 elapsed seconds
Timing for main: time 2016-02-05_12:33:33 on domain   3:     .12269 elapsed seconds
Timing for main: time 2016-02-05_12:33:46 on domain   3:     .11357 elapsed seconds
Timing for main: time 2016-02-05_12:34:00 on domain   3:     .11372 elapsed seconds
Timing for main: time 2016-02-05_12:33:40 on domain   4:     .14479 elapsed seconds
Timing for main: time 2016-02-05_12:34:00 on domain   4:     .13715 elapsed seconds
Timing for main: time 2016-02-05_12:34:00 on domain   2:    1.18695 elapsed seconds
Timing for main: time 2016-02-05_12:34:00 on domain   1:    3.83979 elapsed seconds
Timing for main: time 2016-02-05_12:34:13 on domain   3:     .13356 elapsed seconds
Timing for main: time 2016-02-05_12:34:26 on domain   3:     .11559 elapsed seconds
Timing for main: time 2016-02-05_12:34:40 on domain   3:     .11364 elapsed seconds
Timing for main: time 2016-02-05_12:34:20 on domain   4:     .14652 elapsed seconds
Timing for main: time 2016-02-05_12:34:40 on domain   4:     .17445 elapsed seconds
Timing for main: time 2016-02-05_12:34:40 on domain   2:    1.23329 elapsed seconds
Timing for main: time 2016-02-05_12:34:53 on domain   3:     .12260 elapsed seconds
Timing for main: time 2016-02-05_12:35:06 on domain   3:     .11365 elapsed seconds
Timing for main: time 2016-02-05_12:35:20 on domain   3:     .11372 elapsed seconds
Timing for main: time 2016-02-05_12:35:00 on domain   4:     .15191 elapsed seconds
Timing for main: time 2016-02-05_12:35:20 on domain   4:     .13719 elapsed seconds
Timing for main: time 2016-02-05_12:35:20 on domain   2:    1.24572 elapsed seconds
Timing for main: time 2016-02-05_12:35:33 on domain   3:     .12259 elapsed seconds
Timing for main: time 2016-02-05_12:35:46 on domain   3:     .11860 elapsed seconds
Timing for main: time 2016-02-05_12:36:00 on domain   3:     .11733 elapsed seconds
Timing for main: time 2016-02-05_12:35:40 on domain   4:     .14600 elapsed seconds
Timing for main: time 2016-02-05_12:36:00 on domain   4:     .13644 elapsed seconds
Timing for main: time 2016-02-05_12:36:00 on domain   2:    1.19433 elapsed seconds
Timing for main: time 2016-02-05_12:36:00 on domain   1:    3.95656 elapsed seconds
Timing for main: time 2016-02-05_12:36:13 on domain   3:     .12285 elapsed seconds
Timing for main: time 2016-02-05_12:36:26 on domain   3:     .11387 elapsed seconds
Timing for main: time 2016-02-05_12:36:40 on domain   3:     .11478 elapsed seconds
Timing for main: time 2016-02-05_12:36:20 on domain   4:     .14681 elapsed seconds
Timing for main: time 2016-02-05_12:36:40 on domain   4:     .13546 elapsed seconds
Timing for main: time 2016-02-05_12:36:40 on domain   2:    1.18357 elapsed seconds
Timing for main: time 2016-02-05_12:36:53 on domain   3:     .12269 elapsed seconds
Timing for main: time 2016-02-05_12:37:06 on domain   3:     .11339 elapsed seconds
Timing for main: time 2016-02-05_12:37:20 on domain   3:     .11351 elapsed seconds
Timing for main: time 2016-02-05_12:37:00 on domain   4:     .14960 elapsed seconds
Timing for main: time 2016-02-05_12:37:20 on domain   4:     .13884 elapsed seconds
Timing for main: time 2016-02-05_12:37:20 on domain   2:    1.19624 elapsed seconds
Timing for main: time 2016-02-05_12:37:33 on domain   3:     .12284 elapsed seconds
Timing for main: time 2016-02-05_12:37:46 on domain   3:     .11355 elapsed seconds
Timing for main: time 2016-02-05_12:38:00 on domain   3:     .11375 elapsed seconds
Timing for main: time 2016-02-05_12:37:40 on domain   4:     .14449 elapsed seconds
Timing for main: time 2016-02-05_12:38:00 on domain   4:     .13865 elapsed seconds
Timing for main: time 2016-02-05_12:38:00 on domain   2:    1.18632 elapsed seconds
Timing for main: time 2016-02-05_12:38:00 on domain   1:    3.84699 elapsed seconds
Timing for main: time 2016-02-05_12:38:13 on domain   3:     .12241 elapsed seconds
Timing for main: time 2016-02-05_12:38:26 on domain   3:     .11580 elapsed seconds
Timing for main: time 2016-02-05_12:38:40 on domain   3:     .11368 elapsed seconds
Timing for main: time 2016-02-05_12:38:20 on domain   4:     .14543 elapsed seconds
Timing for main: time 2016-02-05_12:38:40 on domain   4:     .13797 elapsed seconds
Timing for main: time 2016-02-05_12:38:40 on domain   2:    1.18613 elapsed seconds
Timing for main: time 2016-02-05_12:38:53 on domain   3:     .12060 elapsed seconds
Timing for main: time 2016-02-05_12:39:06 on domain   3:     .11781 elapsed seconds
Timing for main: time 2016-02-05_12:39:20 on domain   3:     .11761 elapsed seconds
Timing for main: time 2016-02-05_12:39:00 on domain   4:     .14525 elapsed seconds
Timing for main: time 2016-02-05_12:39:20 on domain   4:     .13670 elapsed seconds
Timing for main: time 2016-02-05_12:39:20 on domain   2:    1.19144 elapsed seconds
Timing for main: time 2016-02-05_12:39:33 on domain   3:     .12264 elapsed seconds
Timing for main: time 2016-02-05_12:39:46 on domain   3:     .11332 elapsed seconds
Timing for main: time 2016-02-05_12:40:00 on domain   3:     .11344 elapsed seconds
Timing for main: time 2016-02-05_12:39:40 on domain   4:     .14482 elapsed seconds
Timing for main: time 2016-02-05_12:40:00 on domain   4:     .14352 elapsed seconds
Timing for main: time 2016-02-05_12:40:00 on domain   2:    1.19120 elapsed seconds
Timing for main: time 2016-02-05_12:40:00 on domain   1:    3.84784 elapsed seconds
Timing for main: time 2016-02-05_12:40:13 on domain   3:     .12245 elapsed seconds
Timing for main: time 2016-02-05_12:40:26 on domain   3:     .12091 elapsed seconds
Timing for main: time 2016-02-05_12:40:40 on domain   3:     .11437 elapsed seconds
Timing for main: time 2016-02-05_12:40:20 on domain   4:     .14449 elapsed seconds
Timing for main: time 2016-02-05_12:40:40 on domain   4:     .13727 elapsed seconds
Timing for main: time 2016-02-05_12:40:40 on domain   2:    1.18989 elapsed seconds
Timing for main: time 2016-02-05_12:40:53 on domain   3:     .13081 elapsed seconds
Timing for main: time 2016-02-05_12:41:06 on domain   3:     .11221 elapsed seconds
Timing for main: time 2016-02-05_12:41:20 on domain   3:     .11655 elapsed seconds
Timing for main: time 2016-02-05_12:41:00 on domain   4:     .14583 elapsed seconds
Timing for main: time 2016-02-05_12:41:20 on domain   4:     .13641 elapsed seconds
Timing for main: time 2016-02-05_12:41:20 on domain   2:    1.19384 elapsed seconds
Timing for main: time 2016-02-05_12:41:33 on domain   3:     .12279 elapsed seconds
Timing for main: time 2016-02-05_12:41:46 on domain   3:     .11316 elapsed seconds
Timing for main: time 2016-02-05_12:42:00 on domain   3:     .16243 elapsed seconds
Timing for main: time 2016-02-05_12:41:40 on domain   4:     .14438 elapsed seconds
Timing for main: time 2016-02-05_12:42:00 on domain   4:     .13682 elapsed seconds
Timing for main: time 2016-02-05_12:42:00 on domain   2:    1.25445 elapsed seconds
Timing for main: time 2016-02-05_12:42:00 on domain   1:    3.92172 elapsed seconds
Timing for main: time 2016-02-05_12:42:13 on domain   3:     .12300 elapsed seconds
Timing for main: time 2016-02-05_12:42:26 on domain   3:     .11441 elapsed seconds
Timing for main: time 2016-02-05_12:42:40 on domain   3:     .11396 elapsed seconds
Timing for main: time 2016-02-05_12:42:20 on domain   4:     .14444 elapsed seconds
Timing for main: time 2016-02-05_12:42:40 on domain   4:     .13778 elapsed seconds
Timing for main: time 2016-02-05_12:42:40 on domain   2:    1.19284 elapsed seconds
Timing for main: time 2016-02-05_12:42:53 on domain   3:     .12252 elapsed seconds
Timing for main: time 2016-02-05_12:43:06 on domain   3:     .11394 elapsed seconds
Timing for main: time 2016-02-05_12:43:20 on domain   3:     .11445 elapsed seconds
Timing for main: time 2016-02-05_12:43:00 on domain   4:     .14715 elapsed seconds
Timing for main: time 2016-02-05_12:43:20 on domain   4:     .13788 elapsed seconds
Timing for main: time 2016-02-05_12:43:20 on domain   2:    1.18820 elapsed seconds
Timing for main: time 2016-02-05_12:43:33 on domain   3:     .12275 elapsed seconds
Timing for main: time 2016-02-05_12:43:46 on domain   3:     .11308 elapsed seconds
Timing for main: time 2016-02-05_12:44:00 on domain   3:     .11354 elapsed seconds
Timing for main: time 2016-02-05_12:43:40 on domain   4:     .14560 elapsed seconds
Timing for main: time 2016-02-05_12:44:00 on domain   4:     .13611 elapsed seconds
Timing for main: time 2016-02-05_12:44:00 on domain   2:    1.19012 elapsed seconds
Timing for main: time 2016-02-05_12:44:00 on domain   1:    3.85000 elapsed seconds
Timing for main: time 2016-02-05_12:44:13 on domain   3:     .12271 elapsed seconds
Timing for main: time 2016-02-05_12:44:26 on domain   3:     .11324 elapsed seconds
Timing for main: time 2016-02-05_12:44:40 on domain   3:     .11316 elapsed seconds
Timing for main: time 2016-02-05_12:44:20 on domain   4:     .17728 elapsed seconds
Timing for main: time 2016-02-05_12:44:40 on domain   4:     .13626 elapsed seconds
Timing for main: time 2016-02-05_12:44:40 on domain   2:    1.21118 elapsed seconds
Timing for main: time 2016-02-05_12:44:53 on domain   3:     .12202 elapsed seconds
Timing for main: time 2016-02-05_12:45:06 on domain   3:     .11332 elapsed seconds
Timing for main: time 2016-02-05_12:45:20 on domain   3:     .11589 elapsed seconds
Timing for main: time 2016-02-05_12:45:00 on domain   4:     .15339 elapsed seconds
Timing for main: time 2016-02-05_12:45:20 on domain   4:     .14576 elapsed seconds
Timing for main: time 2016-02-05_12:45:20 on domain   2:    1.20185 elapsed seconds
Timing for main: time 2016-02-05_12:45:33 on domain   3:     .12530 elapsed seconds
Timing for main: time 2016-02-05_12:45:46 on domain   3:     .11398 elapsed seconds
Timing for main: time 2016-02-05_12:46:00 on domain   3:     .11803 elapsed seconds
Timing for main: time 2016-02-05_12:45:40 on domain   4:     .14485 elapsed seconds
Timing for main: time 2016-02-05_12:46:00 on domain   4:     .13703 elapsed seconds
Timing for main: time 2016-02-05_12:46:00 on domain   2:    1.19166 elapsed seconds
Timing for main: time 2016-02-05_12:46:00 on domain   1:    3.88403 elapsed seconds
Timing for main: time 2016-02-05_12:46:13 on domain   3:     .12334 elapsed seconds
Timing for main: time 2016-02-05_12:46:26 on domain   3:     .11342 elapsed seconds
Timing for main: time 2016-02-05_12:46:40 on domain   3:     .11303 elapsed seconds
Timing for main: time 2016-02-05_12:46:20 on domain   4:     .14650 elapsed seconds
Timing for main: time 2016-02-05_12:46:40 on domain   4:     .13695 elapsed seconds
Timing for main: time 2016-02-05_12:46:40 on domain   2:    1.18290 elapsed seconds
Timing for main: time 2016-02-05_12:46:53 on domain   3:     .12276 elapsed seconds
Timing for main: time 2016-02-05_12:47:06 on domain   3:     .11308 elapsed seconds
Timing for main: time 2016-02-05_12:47:20 on domain   3:     .11284 elapsed seconds
Timing for main: time 2016-02-05_12:47:00 on domain   4:     .14469 elapsed seconds
Timing for main: time 2016-02-05_12:47:20 on domain   4:     .13705 elapsed seconds
Timing for main: time 2016-02-05_12:47:20 on domain   2:    1.18601 elapsed seconds
Timing for main: time 2016-02-05_12:47:33 on domain   3:     .12260 elapsed seconds
Timing for main: time 2016-02-05_12:47:46 on domain   3:     .11552 elapsed seconds
Timing for main: time 2016-02-05_12:48:00 on domain   3:     .11369 elapsed seconds
Timing for main: time 2016-02-05_12:47:40 on domain   4:     .14495 elapsed seconds
Timing for main: time 2016-02-05_12:48:00 on domain   4:     .13722 elapsed seconds
Timing for main: time 2016-02-05_12:48:00 on domain   2:    1.19811 elapsed seconds
Timing for main: time 2016-02-05_12:48:00 on domain   1:    3.84942 elapsed seconds
Timing for main: time 2016-02-05_12:48:13 on domain   3:     .12221 elapsed seconds
Timing for main: time 2016-02-05_12:48:26 on domain   3:     .11424 elapsed seconds
Timing for main: time 2016-02-05_12:48:40 on domain   3:     .12027 elapsed seconds
Timing for main: time 2016-02-05_12:48:20 on domain   4:     .14507 elapsed seconds
Timing for main: time 2016-02-05_12:48:40 on domain   4:     .13894 elapsed seconds
Timing for main: time 2016-02-05_12:48:40 on domain   2:    1.19206 elapsed seconds
Timing for main: time 2016-02-05_12:48:53 on domain   3:     .12478 elapsed seconds
Timing for main: time 2016-02-05_12:49:06 on domain   3:     .11343 elapsed seconds
Timing for main: time 2016-02-05_12:49:20 on domain   3:     .11402 elapsed seconds
Timing for main: time 2016-02-05_12:49:00 on domain   4:     .14490 elapsed seconds
Timing for main: time 2016-02-05_12:49:20 on domain   4:     .13798 elapsed seconds
Timing for main: time 2016-02-05_12:49:20 on domain   2:    1.18743 elapsed seconds
Timing for main: time 2016-02-05_12:49:33 on domain   3:     .12257 elapsed seconds
Timing for main: time 2016-02-05_12:49:46 on domain   3:     .11308 elapsed seconds
Timing for main: time 2016-02-05_12:50:00 on domain   3:     .11376 elapsed seconds
Timing for main: time 2016-02-05_12:49:40 on domain   4:     .14539 elapsed seconds
Timing for main: time 2016-02-05_12:50:00 on domain   4:     .14224 elapsed seconds
Timing for main: time 2016-02-05_12:50:00 on domain   2:    1.22475 elapsed seconds
Timing for main: time 2016-02-05_12:50:00 on domain   1:    3.88195 elapsed seconds
Timing for main: time 2016-02-05_12:50:13 on domain   3:     .12325 elapsed seconds
Timing for main: time 2016-02-05_12:50:26 on domain   3:     .11298 elapsed seconds
Timing for main: time 2016-02-05_12:50:40 on domain   3:     .11399 elapsed seconds
Timing for main: time 2016-02-05_12:50:20 on domain   4:     .14481 elapsed seconds
Timing for main: time 2016-02-05_12:50:40 on domain   4:     .13698 elapsed seconds
Timing for main: time 2016-02-05_12:50:40 on domain   2:    1.18211 elapsed seconds
Timing for main: time 2016-02-05_12:50:53 on domain   3:     .12242 elapsed seconds
Timing for main: time 2016-02-05_12:51:06 on domain   3:     .11793 elapsed seconds
Timing for main: time 2016-02-05_12:51:20 on domain   3:     .11326 elapsed seconds
Timing for main: time 2016-02-05_12:51:00 on domain   4:     .15183 elapsed seconds
Timing for main: time 2016-02-05_12:51:20 on domain   4:     .13532 elapsed seconds
Timing for main: time 2016-02-05_12:51:20 on domain   2:    1.19416 elapsed seconds
Timing for main: time 2016-02-05_12:51:33 on domain   3:     .12324 elapsed seconds
Timing for main: time 2016-02-05_12:51:46 on domain   3:     .12060 elapsed seconds
Timing for main: time 2016-02-05_12:52:00 on domain   3:     .11336 elapsed seconds
Timing for main: time 2016-02-05_12:51:40 on domain   4:     .14486 elapsed seconds
Timing for main: time 2016-02-05_12:52:00 on domain   4:     .13706 elapsed seconds
Timing for main: time 2016-02-05_12:52:00 on domain   2:    1.18989 elapsed seconds
Timing for main: time 2016-02-05_12:52:00 on domain   1:    3.84855 elapsed seconds
Timing for main: time 2016-02-05_12:52:13 on domain   3:     .12495 elapsed seconds
Timing for main: time 2016-02-05_12:52:26 on domain   3:     .11306 elapsed seconds
Timing for main: time 2016-02-05_12:52:40 on domain   3:     .11323 elapsed seconds
Timing for main: time 2016-02-05_12:52:20 on domain   4:     .14491 elapsed seconds
Timing for main: time 2016-02-05_12:52:40 on domain   4:     .13728 elapsed seconds
Timing for main: time 2016-02-05_12:52:40 on domain   2:    1.18318 elapsed seconds
Timing for main: time 2016-02-05_12:52:53 on domain   3:     .12257 elapsed seconds
Timing for main: time 2016-02-05_12:53:06 on domain   3:     .11321 elapsed seconds
Timing for main: time 2016-02-05_12:53:20 on domain   3:     .11317 elapsed seconds
Timing for main: time 2016-02-05_12:53:00 on domain   4:     .14506 elapsed seconds
Timing for main: time 2016-02-05_12:53:20 on domain   4:     .13712 elapsed seconds
Timing for main: time 2016-02-05_12:53:20 on domain   2:    1.19641 elapsed seconds
Timing for main: time 2016-02-05_12:53:33 on domain   3:     .12274 elapsed seconds
Timing for main: time 2016-02-05_12:53:46 on domain   3:     .11319 elapsed seconds
Timing for main: time 2016-02-05_12:54:00 on domain   3:     .11337 elapsed seconds
Timing for main: time 2016-02-05_12:53:40 on domain   4:     .14689 elapsed seconds
Timing for main: time 2016-02-05_12:54:00 on domain   4:     .13643 elapsed seconds
Timing for main: time 2016-02-05_12:54:00 on domain   2:    1.18561 elapsed seconds
Timing for main: time 2016-02-05_12:54:00 on domain   1:    3.85683 elapsed seconds
Timing for main: time 2016-02-05_12:54:13 on domain   3:     .12315 elapsed seconds
Timing for main: time 2016-02-05_12:54:26 on domain   3:     .11505 elapsed seconds
Timing for main: time 2016-02-05_12:54:40 on domain   3:     .11610 elapsed seconds
Timing for main: time 2016-02-05_12:54:20 on domain   4:     .14511 elapsed seconds
Timing for main: time 2016-02-05_12:54:40 on domain   4:     .13695 elapsed seconds
Timing for main: time 2016-02-05_12:54:40 on domain   2:    1.18690 elapsed seconds
Timing for main: time 2016-02-05_12:54:53 on domain   3:     .12248 elapsed seconds
Timing for main: time 2016-02-05_12:55:06 on domain   3:     .11327 elapsed seconds
Timing for main: time 2016-02-05_12:55:20 on domain   3:     .14086 elapsed seconds
Timing for main: time 2016-02-05_12:55:00 on domain   4:     .15150 elapsed seconds
Timing for main: time 2016-02-05_12:55:20 on domain   4:     .13718 elapsed seconds
Timing for main: time 2016-02-05_12:55:20 on domain   2:    1.26977 elapsed seconds
Timing for main: time 2016-02-05_12:55:33 on domain   3:     .12263 elapsed seconds
Timing for main: time 2016-02-05_12:55:46 on domain   3:     .11303 elapsed seconds
Timing for main: time 2016-02-05_12:56:00 on domain   3:     .11310 elapsed seconds
Timing for main: time 2016-02-05_12:55:40 on domain   4:     .14503 elapsed seconds
Timing for main: time 2016-02-05_12:56:00 on domain   4:     .14990 elapsed seconds
Timing for main: time 2016-02-05_12:56:00 on domain   2:    1.19683 elapsed seconds
Timing for main: time 2016-02-05_12:56:00 on domain   1:    3.93128 elapsed seconds
Timing for main: time 2016-02-05_12:56:13 on domain   3:     .12744 elapsed seconds
Timing for main: time 2016-02-05_12:56:26 on domain   3:     .11296 elapsed seconds
Timing for main: time 2016-02-05_12:56:40 on domain   3:     .11460 elapsed seconds
Timing for main: time 2016-02-05_12:56:20 on domain   4:     .14547 elapsed seconds
Timing for main: time 2016-02-05_12:56:40 on domain   4:     .13692 elapsed seconds
Timing for main: time 2016-02-05_12:56:40 on domain   2:    1.18706 elapsed seconds
Timing for main: time 2016-02-05_12:56:53 on domain   3:     .12275 elapsed seconds
Timing for main: time 2016-02-05_12:57:06 on domain   3:     .11576 elapsed seconds
Timing for main: time 2016-02-05_12:57:20 on domain   3:     .11378 elapsed seconds
Timing for main: time 2016-02-05_12:57:00 on domain   4:     .14496 elapsed seconds
Timing for main: time 2016-02-05_12:57:20 on domain   4:     .13648 elapsed seconds
Timing for main: time 2016-02-05_12:57:20 on domain   2:    1.18576 elapsed seconds
Timing for main: time 2016-02-05_12:57:33 on domain   3:     .13871 elapsed seconds
Timing for main: time 2016-02-05_12:57:46 on domain   3:     .14402 elapsed seconds
Timing for main: time 2016-02-05_12:58:00 on domain   3:     .14349 elapsed seconds
Timing for main: time 2016-02-05_12:57:40 on domain   4:     .15495 elapsed seconds
Timing for main: time 2016-02-05_12:58:00 on domain   4:     .18329 elapsed seconds
Timing for main: time 2016-02-05_12:58:00 on domain   2:    1.34148 elapsed seconds
Timing for main: time 2016-02-05_12:58:00 on domain   1:    3.99207 elapsed seconds
  photolysis_driver: called for domain  1
Timing for main: time 2016-02-05_12:58:13 on domain   3:     .12213 elapsed seconds
Timing for main: time 2016-02-05_12:58:26 on domain   3:     .11340 elapsed seconds
Timing for main: time 2016-02-05_12:58:40 on domain   3:     .11468 elapsed seconds
Timing for main: time 2016-02-05_12:58:20 on domain   4:     .14547 elapsed seconds
Timing for main: time 2016-02-05_12:58:40 on domain   4:     .13662 elapsed seconds
Timing for main: time 2016-02-05_12:58:40 on domain   2:    1.19197 elapsed seconds
Timing for main: time 2016-02-05_12:58:53 on domain   3:     .12266 elapsed seconds
Timing for main: time 2016-02-05_12:59:06 on domain   3:     .11349 elapsed seconds
Timing for main: time 2016-02-05_12:59:20 on domain   3:     .11284 elapsed seconds
Timing for main: time 2016-02-05_12:59:00 on domain   4:     .14609 elapsed seconds
Timing for main: time 2016-02-05_12:59:20 on domain   4:     .18707 elapsed seconds
Timing for main: time 2016-02-05_12:59:20 on domain   2:    1.23617 elapsed seconds
  photolysis_driver: called for domain  2
Timing for main: time 2016-02-05_12:59:33 on domain   3:     .12276 elapsed seconds
Timing for main: time 2016-02-05_12:59:46 on domain   3:     .11275 elapsed seconds
  photolysis_driver: called for domain  3
Timing for main: time 2016-02-05_13:00:00 on domain   3:     .60454 elapsed seconds
Timing for main: time 2016-02-05_12:59:40 on domain   4:     .14787 elapsed seconds
  photolysis_driver: called for domain  4
Timing for main: time 2016-02-05_13:00:00 on domain   4:     .74600 elapsed seconds
Timing for main: time 2016-02-05_13:00:00 on domain   2:    3.05973 elapsed seconds
Timing for main: time 2016-02-05_13:00:00 on domain   1:    6.14490 elapsed seconds
Timing for Writing wrfout_d01_2016-02-05_13:00:00 for domain        1:    1.88320 elapsed seconds
  HOURLY EMISSIONS UPDATE TIME     3600.0        .0
 mediation_integrate: med_read_wrf_chem_emissions: Read emissions for time 2016-02-05_13:00:00
 **WARNING** Time in input file not being checked **WARNING**
Timing for Writing wrfout_d02_2016-02-05_13:00:00 for domain        2:    2.37998 elapsed seconds
Timing for Writing wrfout_d03_2016-02-05_13:00:00 for domain        3:    2.38073 elapsed seconds
Timing for main: time 2016-02-05_13:00:13 on domain   3:    2.62230 elapsed seconds
Timing for main: time 2016-02-05_13:00:26 on domain   3:     .13364 elapsed seconds
Timing for main: time 2016-02-05_13:00:40 on domain   3:     .11744 elapsed seconds
Timing for Writing wrfout_d04_2016-02-05_13:00:00 for domain        4:    2.34747 elapsed seconds
Timing for main: time 2016-02-05_13:00:20 on domain   4:    2.64010 elapsed seconds
Timing for main: time 2016-02-05_13:00:40 on domain   4:     .15831 elapsed seconds
Timing for main: time 2016-02-05_13:00:40 on domain   2:    8.76539 elapsed seconds
Timing for main: time 2016-02-05_13:00:53 on domain   3:     .12300 elapsed seconds
Timing for main: time 2016-02-05_13:01:06 on domain   3:     .11304 elapsed seconds
Timing for main: time 2016-02-05_13:01:20 on domain   3:     .11794 elapsed seconds
Timing for main: time 2016-02-05_13:01:00 on domain   4:     .14471 elapsed seconds
Timing for main: time 2016-02-05_13:01:20 on domain   4:     .13716 elapsed seconds
Timing for main: time 2016-02-05_13:01:20 on domain   2:    1.19208 elapsed seconds
Timing for main: time 2016-02-05_13:01:33 on domain   3:     .12268 elapsed seconds
Timing for main: time 2016-02-05_13:01:46 on domain   3:     .11299 elapsed seconds
Timing for main: time 2016-02-05_13:02:00 on domain   3:     .11320 elapsed seconds
Timing for main: time 2016-02-05_13:01:40 on domain   4:     .14666 elapsed seconds
Timing for main: time 2016-02-05_13:02:00 on domain   4:     .13845 elapsed seconds
Timing for main: time 2016-02-05_13:02:00 on domain   2:    1.18646 elapsed seconds
Timing for main: time 2016-02-05_13:02:00 on domain   1:   13.83446 elapsed seconds
Timing for main: time 2016-02-05_13:02:13 on domain   3:     .12312 elapsed seconds
Timing for main: time 2016-02-05_13:02:26 on domain   3:     .11288 elapsed seconds
Timing for main: time 2016-02-05_13:02:40 on domain   3:     .11348 elapsed seconds
Timing for main: time 2016-02-05_13:02:20 on domain   4:     .14556 elapsed seconds
Timing for main: time 2016-02-05_13:02:40 on domain   4:     .13671 elapsed seconds
Timing for main: time 2016-02-05_13:02:40 on domain   2:    1.19165 elapsed seconds
Timing for main: time 2016-02-05_13:02:53 on domain   3:     .12272 elapsed seconds
Timing for main: time 2016-02-05_13:03:06 on domain   3:     .11611 elapsed seconds
Timing for main: time 2016-02-05_13:03:20 on domain   3:     .11301 elapsed seconds
Timing for main: time 2016-02-05_13:03:00 on domain   4:     .16558 elapsed seconds
Timing for main: time 2016-02-05_13:03:20 on domain   4:     .19076 elapsed seconds
Timing for main: time 2016-02-05_13:03:20 on domain   2:    1.25950 elapsed seconds
Timing for main: time 2016-02-05_13:03:33 on domain   3:     .12262 elapsed seconds
Timing for main: time 2016-02-05_13:03:46 on domain   3:     .11335 elapsed seconds
Timing for main: time 2016-02-05_13:04:00 on domain   3:     .11308 elapsed seconds
Timing for main: time 2016-02-05_13:03:40 on domain   4:     .14890 elapsed seconds
Timing for main: time 2016-02-05_13:04:00 on domain   4:     .13633 elapsed seconds
Timing for main: time 2016-02-05_13:04:00 on domain   2:    1.19748 elapsed seconds
Timing for main: time 2016-02-05_13:04:00 on domain   1:    3.92640 elapsed seconds
Timing for main: time 2016-02-05_13:04:13 on domain   3:     .12283 elapsed seconds
Timing for main: time 2016-02-05_13:04:26 on domain   3:     .11346 elapsed seconds
Timing for main: time 2016-02-05_13:04:40 on domain   3:     .11319 elapsed seconds
Timing for main: time 2016-02-05_13:04:20 on domain   4:     .14457 elapsed seconds
Timing for main: time 2016-02-05_13:04:40 on domain   4:     .13693 elapsed seconds
Timing for main: time 2016-02-05_13:04:40 on domain   2:    1.18051 elapsed seconds
Timing for main: time 2016-02-05_13:04:53 on domain   3:     .12273 elapsed seconds
Timing for main: time 2016-02-05_13:05:06 on domain   3:     .11498 elapsed seconds
Timing for main: time 2016-02-05_13:05:20 on domain   3:     .13954 elapsed seconds
Timing for main: time 2016-02-05_13:05:00 on domain   4:     .15117 elapsed seconds
Timing for main: time 2016-02-05_13:05:20 on domain   4:     .13664 elapsed seconds
Timing for main: time 2016-02-05_13:05:20 on domain   2:    1.21690 elapsed seconds
Timing for main: time 2016-02-05_13:05:33 on domain   3:     .12282 elapsed seconds
Timing for main: time 2016-02-05_13:05:46 on domain   3:     .12353 elapsed seconds
Timing for main: time 2016-02-05_13:06:00 on domain   3:     .12066 elapsed seconds
Timing for main: time 2016-02-05_13:05:40 on domain   4:     .14547 elapsed seconds
Timing for main: time 2016-02-05_13:06:00 on domain   4:     .13652 elapsed seconds
Timing for main: time 2016-02-05_13:06:00 on domain   2:    1.20175 elapsed seconds
Timing for main: time 2016-02-05_13:06:00 on domain   1:    3.88224 elapsed seconds
Timing for main: time 2016-02-05_13:06:13 on domain   3:     .12251 elapsed seconds
Timing for main: time 2016-02-05_13:06:26 on domain   3:     .11807 elapsed seconds
Timing for main: time 2016-02-05_13:06:40 on domain   3:     .11307 elapsed seconds
Timing for main: time 2016-02-05_13:06:20 on domain   4:     .14460 elapsed seconds
Timing for main: time 2016-02-05_13:06:40 on domain   4:     .13675 elapsed seconds
Timing for main: time 2016-02-05_13:06:40 on domain   2:    1.18531 elapsed seconds
Timing for main: time 2016-02-05_13:06:53 on domain   3:     .12530 elapsed seconds
Timing for main: time 2016-02-05_13:07:06 on domain   3:     .11514 elapsed seconds
Timing for main: time 2016-02-05_13:07:20 on domain   3:     .11498 elapsed seconds
Timing for main: time 2016-02-05_13:07:00 on domain   4:     .14490 elapsed seconds
Timing for main: time 2016-02-05_13:07:20 on domain   4:     .13664 elapsed seconds
Timing for main: time 2016-02-05_13:07:20 on domain   2:    1.19290 elapsed seconds
Timing for main: time 2016-02-05_13:07:33 on domain   3:     .12269 elapsed seconds
Timing for main: time 2016-02-05_13:07:46 on domain   3:     .11472 elapsed seconds
Timing for main: time 2016-02-05_13:08:00 on domain   3:     .11444 elapsed seconds
Timing for main: time 2016-02-05_13:07:40 on domain   4:     .14505 elapsed seconds
Timing for main: time 2016-02-05_13:08:00 on domain   4:     .13676 elapsed seconds
Timing for main: time 2016-02-05_13:08:00 on domain   2:    1.18730 elapsed seconds
Timing for main: time 2016-02-05_13:08:00 on domain   1:    3.84358 elapsed seconds
Timing for main: time 2016-02-05_13:08:13 on domain   3:     .12261 elapsed seconds
Timing for main: time 2016-02-05_13:08:26 on domain   3:     .11360 elapsed seconds
Timing for main: time 2016-02-05_13:08:40 on domain   3:     .11316 elapsed seconds
Timing for main: time 2016-02-05_13:08:20 on domain   4:     .14551 elapsed seconds
Timing for main: time 2016-02-05_13:08:40 on domain   4:     .13758 elapsed seconds
Timing for main: time 2016-02-05_13:08:40 on domain   2:    1.18246 elapsed seconds
Timing for main: time 2016-02-05_13:08:53 on domain   3:     .12262 elapsed seconds
Timing for main: time 2016-02-05_13:09:06 on domain   3:     .11311 elapsed seconds
Timing for main: time 2016-02-05_13:09:20 on domain   3:     .11298 elapsed seconds
Timing for main: time 2016-02-05_13:09:00 on domain   4:     .14496 elapsed seconds
Timing for main: time 2016-02-05_13:09:20 on domain   4:     .13693 elapsed seconds
Timing for main: time 2016-02-05_13:09:20 on domain   2:    1.19642 elapsed seconds
Timing for main: time 2016-02-05_13:09:33 on domain   3:     .12301 elapsed seconds
Timing for main: time 2016-02-05_13:09:46 on domain   3:     .11434 elapsed seconds
Timing for main: time 2016-02-05_13:10:00 on domain   3:     .11694 elapsed seconds
Timing for main: time 2016-02-05_13:09:40 on domain   4:     .14535 elapsed seconds
Timing for main: time 2016-02-05_13:10:00 on domain   4:     .15300 elapsed seconds
Timing for main: time 2016-02-05_13:10:00 on domain   2:    1.20496 elapsed seconds
Timing for main: time 2016-02-05_13:10:00 on domain   1:    3.86222 elapsed seconds
Timing for main: time 2016-02-05_13:10:13 on domain   3:     .12488 elapsed seconds
Timing for main: time 2016-02-05_13:10:26 on domain   3:     .12122 elapsed seconds
Timing for main: time 2016-02-05_13:10:40 on domain   3:     .11338 elapsed seconds
Timing for main: time 2016-02-05_13:10:20 on domain   4:     .14493 elapsed seconds
Timing for main: time 2016-02-05_13:10:40 on domain   4:     .13934 elapsed seconds
Timing for main: time 2016-02-05_13:10:40 on domain   2:    1.19624 elapsed seconds
Timing for main: time 2016-02-05_13:10:53 on domain   3:     .12246 elapsed seconds
Timing for main: time 2016-02-05_13:11:06 on domain   3:     .11326 elapsed seconds
Timing for main: time 2016-02-05_13:11:20 on domain   3:     .11427 elapsed seconds
Timing for main: time 2016-02-05_13:11:00 on domain   4:     .14651 elapsed seconds
Timing for main: time 2016-02-05_13:11:20 on domain   4:     .13747 elapsed seconds
Timing for main: time 2016-02-05_13:11:20 on domain   2:    1.18809 elapsed seconds
Timing for main: time 2016-02-05_13:11:33 on domain   3:     .12733 elapsed seconds
Timing for main: time 2016-02-05_13:11:46 on domain   3:     .11347 elapsed seconds
Timing for main: time 2016-02-05_13:12:00 on domain   3:     .11456 elapsed seconds
Timing for main: time 2016-02-05_13:11:40 on domain   4:     .14501 elapsed seconds
Timing for main: time 2016-02-05_13:12:00 on domain   4:     .14219 elapsed seconds
Timing for main: time 2016-02-05_13:12:00 on domain   2:    1.19564 elapsed seconds
Timing for main: time 2016-02-05_13:12:00 on domain   1:    3.86258 elapsed seconds
Timing for main: time 2016-02-05_13:12:13 on domain   3:     .12295 elapsed seconds
Timing for main: time 2016-02-05_13:12:26 on domain   3:     .14291 elapsed seconds
Timing for main: time 2016-02-05_13:12:40 on domain   3:     .17210 elapsed seconds
Timing for main: time 2016-02-05_13:12:20 on domain   4:     .14530 elapsed seconds
Timing for main: time 2016-02-05_13:12:40 on domain   4:     .13654 elapsed seconds
Timing for main: time 2016-02-05_13:12:40 on domain   2:    1.27809 elapsed seconds
Timing for main: time 2016-02-05_13:12:53 on domain   3:     .14554 elapsed seconds
Timing for main: time 2016-02-05_13:13:06 on domain   3:     .13972 elapsed seconds
Timing for main: time 2016-02-05_13:13:20 on domain   3:     .11358 elapsed seconds
Timing for main: time 2016-02-05_13:13:00 on domain   4:     .14473 elapsed seconds
Timing for main: time 2016-02-05_13:13:20 on domain   4:     .13675 elapsed seconds
Timing for main: time 2016-02-05_13:13:20 on domain   2:    1.23746 elapsed seconds
Timing for main: time 2016-02-05_13:13:33 on domain   3:     .12397 elapsed seconds
Timing for main: time 2016-02-05_13:13:46 on domain   3:     .11364 elapsed seconds
Timing for main: time 2016-02-05_13:14:00 on domain   3:     .11313 elapsed seconds
Timing for main: time 2016-02-05_13:13:40 on domain   4:     .14490 elapsed seconds
Timing for main: time 2016-02-05_13:14:00 on domain   4:     .13713 elapsed seconds
Timing for main: time 2016-02-05_13:14:00 on domain   2:    1.18651 elapsed seconds
Timing for main: time 2016-02-05_13:14:00 on domain   1:    3.97934 elapsed seconds
Timing for main: time 2016-02-05_13:14:13 on domain   3:     .12257 elapsed seconds
Timing for main: time 2016-02-05_13:14:26 on domain   3:     .11289 elapsed seconds
Timing for main: time 2016-02-05_13:14:40 on domain   3:     .11338 elapsed seconds
Timing for main: time 2016-02-05_13:14:20 on domain   4:     .14497 elapsed seconds
Timing for main: time 2016-02-05_13:14:40 on domain   4:     .13697 elapsed seconds
Timing for main: time 2016-02-05_13:14:40 on domain   2:    1.18691 elapsed seconds
Timing for main: time 2016-02-05_13:14:53 on domain   3:     .12268 elapsed seconds
Timing for main: time 2016-02-05_13:15:06 on domain   3:     .11607 elapsed seconds
Timing for main: time 2016-02-05_13:15:20 on domain   3:     .11961 elapsed seconds
Timing for main: time 2016-02-05_13:15:00 on domain   4:     .15146 elapsed seconds
Timing for main: time 2016-02-05_13:15:20 on domain   4:     .13654 elapsed seconds
Timing for main: time 2016-02-05_13:15:20 on domain   2:    1.20175 elapsed seconds
Timing for main: time 2016-02-05_13:15:33 on domain   3:     .12267 elapsed seconds
Timing for main: time 2016-02-05_13:15:46 on domain   3:     .11333 elapsed seconds
Timing for main: time 2016-02-05_13:16:00 on domain   3:     .11350 elapsed seconds
Timing for main: time 2016-02-05_13:15:40 on domain   4:     .14517 elapsed seconds
Timing for main: time 2016-02-05_13:16:00 on domain   4:     .13684 elapsed seconds
Timing for main: time 2016-02-05_13:16:00 on domain   2:    1.18288 elapsed seconds
Timing for main: time 2016-02-05_13:16:00 on domain   1:    3.84924 elapsed seconds
Timing for main: time 2016-02-05_13:16:13 on domain   3:     .12301 elapsed seconds
Timing for main: time 2016-02-05_13:16:26 on domain   3:     .11390 elapsed seconds
Timing for main: time 2016-02-05_13:16:40 on domain   3:     .11848 elapsed seconds
Timing for main: time 2016-02-05_13:16:20 on domain   4:     .14507 elapsed seconds
Timing for main: time 2016-02-05_13:16:40 on domain   4:     .13640 elapsed seconds
Timing for main: time 2016-02-05_13:16:40 on domain   2:    1.18839 elapsed seconds
Timing for main: time 2016-02-05_13:16:53 on domain   3:     .12257 elapsed seconds
Timing for main: time 2016-02-05_13:17:06 on domain   3:     .11344 elapsed seconds
Timing for main: time 2016-02-05_13:17:20 on domain   3:     .11335 elapsed seconds
Timing for main: time 2016-02-05_13:17:00 on domain   4:     .14508 elapsed seconds
Timing for main: time 2016-02-05_13:17:20 on domain   4:     .13870 elapsed seconds
Timing for main: time 2016-02-05_13:17:20 on domain   2:    1.18541 elapsed seconds
Timing for main: time 2016-02-05_13:17:33 on domain   3:     .12287 elapsed seconds
Timing for main: time 2016-02-05_13:17:46 on domain   3:     .11338 elapsed seconds
[...]
Timing for main: time 2016-02-05_17:36:00 on domain   2:    1.19835 elapsed seconds
Timing for main: time 2016-02-05_17:36:00 on domain   1:    3.86346 elapsed seconds
Timing for main: time 2016-02-05_17:36:13 on domain   3:     .12419 elapsed seconds
Timing for main: time 2016-02-05_17:36:26 on domain   3:     .11389 elapsed seconds
Timing for main: time 2016-02-05_17:36:40 on domain   3:     .11552 elapsed seconds
Timing for main: time 2016-02-05_17:36:20 on domain   4:     .14599 elapsed seconds
Timing for main: time 2016-02-05_17:36:40 on domain   4:     .13667 elapsed seconds
Timing for main: time 2016-02-05_17:36:40 on domain   2:    1.18697 elapsed seconds
Timing for main: time 2016-02-05_17:36:53 on domain   3:     .12436 elapsed seconds
Timing for main: time 2016-02-05_17:37:06 on domain   3:     .11379 elapsed seconds
Timing for main: time 2016-02-05_17:37:20 on domain   3:     .13798 elapsed seconds
Timing for main: time 2016-02-05_17:37:00 on domain   4:     .14540 elapsed seconds
Timing for main: time 2016-02-05_17:37:20 on domain   4:     .13700 elapsed seconds
Timing for main: time 2016-02-05_17:37:20 on domain   2:    1.25433 elapsed seconds
Timing for main: time 2016-02-05_17:37:33 on domain   3:     .12425 elapsed seconds
Timing for main: time 2016-02-05_17:37:46 on domain   3:     .11388 elapsed seconds
Timing for main: time 2016-02-05_17:38:00 on domain   3:     .11426 elapsed seconds
Timing for main: time 2016-02-05_17:37:40 on domain   4:     .14544 elapsed seconds
Timing for main: time 2016-02-05_17:38:00 on domain   4:     .13713 elapsed seconds
Timing for main: time 2016-02-05_17:38:00 on domain   2:    1.18749 elapsed seconds
Timing for main: time 2016-02-05_17:38:00 on domain   1:    3.90548 elapsed seconds
Timing for main: time 2016-02-05_17:38:13 on domain   3:     .12608 elapsed seconds
Timing for main: time 2016-02-05_17:38:26 on domain   3:     .11558 elapsed seconds
Timing for main: time 2016-02-05_17:38:40 on domain   3:     .11481 elapsed seconds
Timing for main: time 2016-02-05_17:38:20 on domain   4:     .15551 elapsed seconds
Timing for main: time 2016-02-05_17:38:40 on domain   4:     .13796 elapsed seconds
Timing for main: time 2016-02-05_17:38:40 on domain   2:    1.20001 elapsed seconds
Timing for main: time 2016-02-05_17:38:53 on domain   3:     .12437 elapsed seconds
Timing for main: time 2016-02-05_17:39:06 on domain   3:     .11378 elapsed seconds
Timing for main: time 2016-02-05_17:39:20 on domain   3:     .11379 elapsed seconds
Timing for main: time 2016-02-05_17:39:00 on domain   4:     .14515 elapsed seconds
Timing for main: time 2016-02-05_17:39:20 on domain   4:     .13861 elapsed seconds
Timing for main: time 2016-02-05_17:39:20 on domain   2:    1.18778 elapsed seconds
Timing for main: time 2016-02-05_17:39:33 on domain   3:     .12390 elapsed seconds
Timing for main: time 2016-02-05_17:39:46 on domain   3:     .11395 elapsed seconds
Timing for main: time 2016-02-05_17:40:00 on domain   3:     .11384 elapsed seconds
Timing for main: time 2016-02-05_17:39:40 on domain   4:     .14555 elapsed seconds
Timing for main: time 2016-02-05_17:40:00 on domain   4:     .14308 elapsed seconds
Timing for main: time 2016-02-05_17:40:00 on domain   2:    1.19372 elapsed seconds
Timing for main: time 2016-02-05_17:40:00 on domain   1:    3.85813 elapsed seconds
Timing for main: time 2016-02-05_17:40:13 on domain   3:     .12430 elapsed seconds
Timing for main: time 2016-02-05_17:40:26 on domain   3:     .11610 elapsed seconds
Timing for main: time 2016-02-05_17:40:40 on domain   3:     .11633 elapsed seconds
Timing for main: time 2016-02-05_17:40:20 on domain   4:     .14642 elapsed seconds
Timing for main: time 2016-02-05_17:40:40 on domain   4:     .13605 elapsed seconds
Timing for main: time 2016-02-05_17:40:40 on domain   2:    1.19313 elapsed seconds
Timing for main: time 2016-02-05_17:40:53 on domain   3:     .12387 elapsed seconds
Timing for main: time 2016-02-05_17:41:06 on domain   3:     .11512 elapsed seconds
Timing for main: time 2016-02-05_17:41:20 on domain   3:     .11449 elapsed seconds
Timing for main: time 2016-02-05_17:41:00 on domain   4:     .14515 elapsed seconds
Timing for main: time 2016-02-05_17:41:20 on domain   4:     .13774 elapsed seconds
Timing for main: time 2016-02-05_17:41:20 on domain   2:    1.19593 elapsed seconds
Timing for main: time 2016-02-05_17:41:33 on domain   3:     .12534 elapsed seconds
Timing for main: time 2016-02-05_17:41:46 on domain   3:     .11415 elapsed seconds
Timing for main: time 2016-02-05_17:42:00 on domain   3:     .11389 elapsed seconds
Timing for main: time 2016-02-05_17:41:40 on domain   4:     .14540 elapsed seconds
Timing for main: time 2016-02-05_17:42:00 on domain   4:     .13696 elapsed seconds
Timing for main: time 2016-02-05_17:42:00 on domain   2:    1.19029 elapsed seconds
Timing for main: time 2016-02-05_17:42:00 on domain   1:    3.85990 elapsed seconds
Timing for main: time 2016-02-05_17:42:13 on domain   3:     .12493 elapsed seconds
Timing for main: time 2016-02-05_17:42:26 on domain   3:     .11982 elapsed seconds
Timing for main: time 2016-02-05_17:42:40 on domain   3:     .11412 elapsed seconds
Timing for main: time 2016-02-05_17:42:20 on domain   4:     .16191 elapsed seconds
Timing for main: time 2016-02-05_17:42:40 on domain   4:     .15822 elapsed seconds
Timing for main: time 2016-02-05_17:42:40 on domain   2:    1.22920 elapsed seconds
Timing for main: time 2016-02-05_17:42:53 on domain   3:     .12398 elapsed seconds
Timing for main: time 2016-02-05_17:43:06 on domain   3:     .11490 elapsed seconds
Timing for main: time 2016-02-05_17:43:20 on domain   3:     .14380 elapsed seconds
Timing for main: time 2016-02-05_17:43:00 on domain   4:     .14515 elapsed seconds
Timing for main: time 2016-02-05_17:43:20 on domain   4:     .14564 elapsed seconds
Timing for main: time 2016-02-05_17:43:20 on domain   2:    1.22618 elapsed seconds
Timing for main: time 2016-02-05_17:43:33 on domain   3:     .12422 elapsed seconds
Timing for main: time 2016-02-05_17:43:46 on domain   3:     .12011 elapsed seconds
Timing for main: time 2016-02-05_17:44:00 on domain   3:     .11422 elapsed seconds
Timing for main: time 2016-02-05_17:43:40 on domain   4:     .14544 elapsed seconds
Timing for main: time 2016-02-05_17:44:00 on domain   4:     .14104 elapsed seconds
Timing for main: time 2016-02-05_17:44:00 on domain   2:    1.19612 elapsed seconds
Timing for main: time 2016-02-05_17:44:00 on domain   1:    3.92865 elapsed seconds
Timing for main: time 2016-02-05_17:44:13 on domain   3:     .12440 elapsed seconds
Timing for main: time 2016-02-05_17:44:26 on domain   3:     .11373 elapsed seconds
Timing for main: time 2016-02-05_17:44:40 on domain   3:     .11397 elapsed seconds
Timing for main: time 2016-02-05_17:44:20 on domain   4:     .14524 elapsed seconds
Timing for main: time 2016-02-05_17:44:40 on domain   4:     .13714 elapsed seconds
Timing for main: time 2016-02-05_17:44:40 on domain   2:    1.25512 elapsed seconds
Timing for main: time 2016-02-05_17:44:53 on domain   3:     .12660 elapsed seconds
Timing for main: time 2016-02-05_17:45:06 on domain   3:     .11370 elapsed seconds
Timing for main: time 2016-02-05_17:45:20 on domain   3:     .11390 elapsed seconds
Timing for main: time 2016-02-05_17:45:00 on domain   4:     .15166 elapsed seconds
Timing for main: time 2016-02-05_17:45:20 on domain   4:     .14007 elapsed seconds
Timing for main: time 2016-02-05_17:45:20 on domain   2:    1.20131 elapsed seconds
Timing for main: time 2016-02-05_17:45:33 on domain   3:     .12437 elapsed seconds
Timing for main: time 2016-02-05_17:45:46 on domain   3:     .11671 elapsed seconds
Timing for main: time 2016-02-05_17:46:00 on domain   3:     .11384 elapsed seconds
Timing for main: time 2016-02-05_17:45:40 on domain   4:     .14535 elapsed seconds
Timing for main: time 2016-02-05_17:46:00 on domain   4:     .13717 elapsed seconds
Timing for main: time 2016-02-05_17:46:00 on domain   2:    1.19172 elapsed seconds
Timing for main: time 2016-02-05_17:46:00 on domain   1:    3.92506 elapsed seconds
Timing for main: time 2016-02-05_17:46:13 on domain   3:     .12468 elapsed seconds
Timing for main: time 2016-02-05_17:46:26 on domain   3:     .11448 elapsed seconds
Timing for main: time 2016-02-05_17:46:40 on domain   3:     .12164 elapsed seconds
Timing for main: time 2016-02-05_17:46:20 on domain   4:     .14527 elapsed seconds
Timing for main: time 2016-02-05_17:46:40 on domain   4:     .13707 elapsed seconds
Timing for main: time 2016-02-05_17:46:40 on domain   2:    1.19946 elapsed seconds
Timing for main: time 2016-02-05_17:46:53 on domain   3:     .12536 elapsed seconds
Timing for main: time 2016-02-05_17:47:06 on domain   3:     .11350 elapsed seconds
Timing for main: time 2016-02-05_17:47:20 on domain   3:     .11428 elapsed seconds
Timing for main: time 2016-02-05_17:47:00 on domain   4:     .14534 elapsed seconds
Timing for main: time 2016-02-05_17:47:20 on domain   4:     .13679 elapsed seconds
Timing for main: time 2016-02-05_17:47:20 on domain   2:    1.18838 elapsed seconds
Timing for main: time 2016-02-05_17:47:33 on domain   3:     .12907 elapsed seconds
Timing for main: time 2016-02-05_17:47:46 on domain   3:     .11377 elapsed seconds
Timing for main: time 2016-02-05_17:48:00 on domain   3:     .11404 elapsed seconds
Timing for main: time 2016-02-05_17:47:40 on domain   4:     .14501 elapsed seconds
Timing for main: time 2016-02-05_17:48:00 on domain   4:     .13891 elapsed seconds
Timing for main: time 2016-02-05_17:48:00 on domain   2:    1.19416 elapsed seconds
Timing for main: time 2016-02-05_17:48:00 on domain   1:    3.86271 elapsed seconds
Timing for main: time 2016-02-05_17:48:13 on domain   3:     .12450 elapsed seconds
Timing for main: time 2016-02-05_17:48:26 on domain   3:     .11386 elapsed seconds
Timing for main: time 2016-02-05_17:48:40 on domain   3:     .11410 elapsed seconds
Timing for main: time 2016-02-05_17:48:20 on domain   4:     .14818 elapsed seconds
Timing for main: time 2016-02-05_17:48:40 on domain   4:     .13506 elapsed seconds
Timing for main: time 2016-02-05_17:48:40 on domain   2:    1.18879 elapsed seconds
Timing for main: time 2016-02-05_17:48:53 on domain   3:     .12428 elapsed seconds
Timing for main: time 2016-02-05_17:49:06 on domain   3:     .11374 elapsed seconds
Timing for main: time 2016-02-05_17:49:20 on domain   3:     .11410 elapsed seconds
Timing for main: time 2016-02-05_17:49:00 on domain   4:     .14543 elapsed seconds
Timing for main: time 2016-02-05_17:49:20 on domain   4:     .13700 elapsed seconds
Timing for main: time 2016-02-05_17:49:20 on domain   2:    1.18608 elapsed seconds
Timing for main: time 2016-02-05_17:49:33 on domain   3:     .12784 elapsed seconds
Timing for main: time 2016-02-05_17:49:46 on domain   3:     .11549 elapsed seconds
Timing for main: time 2016-02-05_17:50:00 on domain   3:     .11617 elapsed seconds
Timing for main: time 2016-02-05_17:49:40 on domain   4:     .14529 elapsed seconds
Timing for main: time 2016-02-05_17:50:00 on domain   4:     .14299 elapsed seconds
Timing for main: time 2016-02-05_17:50:00 on domain   2:    1.26319 elapsed seconds
Timing for main: time 2016-02-05_17:50:00 on domain   1:    3.91479 elapsed seconds
Timing for main: time 2016-02-05_17:50:13 on domain   3:     .12456 elapsed seconds
Timing for main: time 2016-02-05_17:50:26 on domain   3:     .11411 elapsed seconds
Timing for main: time 2016-02-05_17:50:40 on domain   3:     .11390 elapsed seconds
Timing for main: time 2016-02-05_17:50:20 on domain   4:     .14528 elapsed seconds
Timing for main: time 2016-02-05_17:50:40 on domain   4:     .13814 elapsed seconds
Timing for main: time 2016-02-05_17:50:40 on domain   2:    1.18634 elapsed seconds
Timing for main: time 2016-02-05_17:50:53 on domain   3:     .12425 elapsed seconds
Timing for main: time 2016-02-05_17:51:06 on domain   3:     .11384 elapsed seconds
Timing for main: time 2016-02-05_17:51:20 on domain   3:     .11467 elapsed seconds
Timing for main: time 2016-02-05_17:51:00 on domain   4:     .14495 elapsed seconds
Timing for main: time 2016-02-05_17:51:20 on domain   4:     .13823 elapsed seconds
Timing for main: time 2016-02-05_17:51:20 on domain   2:    1.19115 elapsed seconds
Timing for main: time 2016-02-05_17:51:33 on domain   3:     .12417 elapsed seconds
Timing for main: time 2016-02-05_17:51:46 on domain   3:     .11610 elapsed seconds
Timing for main: time 2016-02-05_17:52:00 on domain   3:     .11429 elapsed seconds
Timing for main: time 2016-02-05_17:51:40 on domain   4:     .14595 elapsed seconds
Timing for main: time 2016-02-05_17:52:00 on domain   4:     .13616 elapsed seconds
Timing for main: time 2016-02-05_17:52:00 on domain   2:    1.19416 elapsed seconds
Timing for main: time 2016-02-05_17:52:00 on domain   1:    3.84913 elapsed seconds
Timing for main: time 2016-02-05_17:52:13 on domain   3:     .12423 elapsed seconds
Timing for main: time 2016-02-05_17:52:26 on domain   3:     .11412 elapsed seconds
Timing for main: time 2016-02-05_17:52:40 on domain   3:     .11901 elapsed seconds
Timing for main: time 2016-02-05_17:52:20 on domain   4:     .14481 elapsed seconds
Timing for main: time 2016-02-05_17:52:40 on domain   4:     .13696 elapsed seconds
Timing for main: time 2016-02-05_17:52:40 on domain   2:    1.19004 elapsed seconds
Timing for main: time 2016-02-05_17:52:53 on domain   3:     .12423 elapsed seconds
Timing for main: time 2016-02-05_17:53:06 on domain   3:     .11389 elapsed seconds
Timing for main: time 2016-02-05_17:53:20 on domain   3:     .11430 elapsed seconds
Timing for main: time 2016-02-05_17:53:00 on domain   4:     .14528 elapsed seconds
Timing for main: time 2016-02-05_17:53:20 on domain   4:     .13684 elapsed seconds
Timing for main: time 2016-02-05_17:53:20 on domain   2:    1.19427 elapsed seconds
Timing for main: time 2016-02-05_17:53:33 on domain   3:     .12430 elapsed seconds
Timing for main: time 2016-02-05_17:53:46 on domain   3:     .11422 elapsed seconds
Timing for main: time 2016-02-05_17:54:00 on domain   3:     .11439 elapsed seconds
Timing for main: time 2016-02-05_17:53:40 on domain   4:     .14547 elapsed seconds
Timing for main: time 2016-02-05_17:54:00 on domain   4:     .13724 elapsed seconds
Timing for main: time 2016-02-05_17:54:00 on domain   2:    1.18834 elapsed seconds
Timing for main: time 2016-02-05_17:54:00 on domain   1:    3.85287 elapsed seconds
Timing for main: time 2016-02-05_17:54:13 on domain   3:     .12365 elapsed seconds
Timing for main: time 2016-02-05_17:54:26 on domain   3:     .11436 elapsed seconds
Timing for main: time 2016-02-05_17:54:40 on domain   3:     .11442 elapsed seconds
Timing for main: time 2016-02-05_17:54:20 on domain   4:     .14547 elapsed seconds
Timing for main: time 2016-02-05_17:54:40 on domain   4:     .13851 elapsed seconds
Timing for main: time 2016-02-05_17:54:40 on domain   2:    1.20464 elapsed seconds
Timing for main: time 2016-02-05_17:54:53 on domain   3:     .12427 elapsed seconds
Timing for main: time 2016-02-05_17:55:06 on domain   3:     .11522 elapsed seconds
Timing for main: time 2016-02-05_17:55:20 on domain   3:     .11433 elapsed seconds
Timing for main: time 2016-02-05_17:55:00 on domain   4:     .15118 elapsed seconds
Timing for main: time 2016-02-05_17:55:20 on domain   4:     .13952 elapsed seconds
Timing for main: time 2016-02-05_17:55:20 on domain   2:    1.20010 elapsed seconds
Timing for main: time 2016-02-05_17:55:33 on domain   3:     .12451 elapsed seconds
Timing for main: time 2016-02-05_17:55:46 on domain   3:     .11420 elapsed seconds
Timing for main: time 2016-02-05_17:56:00 on domain   3:     .11552 elapsed seconds
Timing for main: time 2016-02-05_17:55:40 on domain   4:     .15146 elapsed seconds
Timing for main: time 2016-02-05_17:56:00 on domain   4:     .13743 elapsed seconds
Timing for main: time 2016-02-05_17:56:00 on domain   2:    1.19870 elapsed seconds
Timing for main: time 2016-02-05_17:56:00 on domain   1:    3.88013 elapsed seconds
Timing for main: time 2016-02-05_17:56:13 on domain   3:     .12410 elapsed seconds
Timing for main: time 2016-02-05_17:56:26 on domain   3:     .11406 elapsed seconds
Timing for main: time 2016-02-05_17:56:40 on domain   3:     .11432 elapsed seconds
Timing for main: time 2016-02-05_17:56:20 on domain   4:     .14545 elapsed seconds
Timing for main: time 2016-02-05_17:56:40 on domain   4:     .14017 elapsed seconds
Timing for main: time 2016-02-05_17:56:40 on domain   2:    1.19227 elapsed seconds
Timing for main: time 2016-02-05_17:56:53 on domain   3:     .12438 elapsed seconds
Timing for main: time 2016-02-05_17:57:06 on domain   3:     .11404 elapsed seconds
Timing for main: time 2016-02-05_17:57:20 on domain   3:     .11438 elapsed seconds
Timing for main: time 2016-02-05_17:57:00 on domain   4:     .14546 elapsed seconds
Timing for main: time 2016-02-05_17:57:20 on domain   4:     .13690 elapsed seconds
Timing for main: time 2016-02-05_17:57:20 on domain   2:    1.19174 elapsed seconds
Timing for main: time 2016-02-05_17:57:33 on domain   3:     .12445 elapsed seconds
Timing for main: time 2016-02-05_17:57:46 on domain   3:     .11975 elapsed seconds
Timing for main: time 2016-02-05_17:58:00 on domain   3:     .11421 elapsed seconds
Timing for main: time 2016-02-05_17:57:40 on domain   4:     .14489 elapsed seconds
Timing for main: time 2016-02-05_17:58:00 on domain   4:     .13712 elapsed seconds
Timing for main: time 2016-02-05_17:58:00 on domain   2:    1.19370 elapsed seconds
Timing for main: time 2016-02-05_17:58:00 on domain   1:    3.85425 elapsed seconds
  photolysis_driver: called for domain  1
Timing for main: time 2016-02-05_17:58:13 on domain   3:     .12437 elapsed seconds
Timing for main: time 2016-02-05_17:58:26 on domain   3:     .12005 elapsed seconds
Timing for main: time 2016-02-05_17:58:40 on domain   3:     .12802 elapsed seconds
Timing for main: time 2016-02-05_17:58:20 on domain   4:     .14672 elapsed seconds
Timing for main: time 2016-02-05_17:58:40 on domain   4:     .13662 elapsed seconds
Timing for main: time 2016-02-05_17:58:40 on domain   2:    1.20681 elapsed seconds
Timing for main: time 2016-02-05_17:58:53 on domain   3:     .12674 elapsed seconds
Timing for main: time 2016-02-05_17:59:06 on domain   3:     .11748 elapsed seconds
Timing for main: time 2016-02-05_17:59:20 on domain   3:     .11507 elapsed seconds
Timing for main: time 2016-02-05_17:59:00 on domain   4:     .14894 elapsed seconds
Timing for main: time 2016-02-05_17:59:20 on domain   4:     .14074 elapsed seconds
Timing for main: time 2016-02-05_17:59:20 on domain   2:    1.20185 elapsed seconds
  photolysis_driver: called for domain  2
Timing for main: time 2016-02-05_17:59:33 on domain   3:     .12434 elapsed seconds
Timing for main: time 2016-02-05_17:59:46 on domain   3:     .11407 elapsed seconds
  photolysis_driver: called for domain  3
Timing for main: time 2016-02-05_18:00:00 on domain   3:     .60704 elapsed seconds
Timing for Writing wrfout_d03_2016-02-05_18:00:00 for domain        3:    2.06076 elapsed seconds
Timing for main: time 2016-02-05_17:59:40 on domain   4:     .16076 elapsed seconds
  photolysis_driver: called for domain  4
Timing for main: time 2016-02-05_18:00:00 on domain   4:     .76025 elapsed seconds
Timing for Writing wrfout_d04_2016-02-05_18:00:00 for domain        4:    2.29661 elapsed seconds
Timing for main: time 2016-02-05_18:00:00 on domain   2:    7.30352 elapsed seconds
Timing for Writing wrfout_d02_2016-02-05_18:00:00 for domain        2:    2.95454 elapsed seconds
Timing for main: time 2016-02-05_18:00:00 on domain   1:   13.28129 elapsed seconds
Timing for Writing wrfout_d01_2016-02-05_18:00:00 for domain        1:    2.47026 elapsed seconds
 d01 2016-02-05_18:00:00 wrf: SUCCESS COMPLETE WRF
