taskid: 0 hostname: p10a51.pbm.ihost.com
  Ntasks in X  10 , ntasks in Y  16
 Setting blank km_opt entries to domain #1 values.
  --> The km_opt entry in the namelist.input is now max_domains.
 Setting blank diff_opt entries to domain #1 values.
  --> The diff_opt entry in the namelist.input is now max_domains.
 --- WARNING: traj_opt is zero, but num_traj is not zero; setting num_traj to zero.
 --- NOTE: hypsometric_opt is 2, setting adjust_heights = F
 --- NOTE: sst_update is 0, setting io_form_auxinput4 = 0 and auxinput4_interval = 0 for all domains
 --- NOTE: sst_update is 0, setting io_form_auxinput4 = 0 and auxinput4_interval = 0 for all domains
 --- NOTE: sst_update is 0, setting io_form_auxinput4 = 0 and auxinput4_interval = 0 for all domains
 --- NOTE: sst_update is 0, setting io_form_auxinput4 = 0 and auxinput4_interval = 0 for all domains
 --- NOTE: grid_fdda is 0 for domain      1, setting gfdda interval and ending time to 0 for that domain.
 --- NOTE: both grid_sfdda and pxlsm_soil_nudge are 0 for domain      1, setting sgfdda interval and ending time to 0 for that domain.
 --- NOTE: obs_nudge_opt is 0 for domain      1, setting obs nudging interval and ending time to 0 for that domain.
 --- NOTE: grid_fdda is 0 for domain      2, setting gfdda interval and ending time to 0 for that domain.
 --- NOTE: both grid_sfdda and pxlsm_soil_nudge are 0 for domain      2, setting sgfdda interval and ending time to 0 for that domain.
 --- NOTE: obs_nudge_opt is 0 for domain      2, setting obs nudging interval and ending time to 0 for that domain.
 --- NOTE: grid_fdda is 0 for domain      3, setting gfdda interval and ending time to 0 for that domain.
 --- NOTE: both grid_sfdda and pxlsm_soil_nudge are 0 for domain      3, setting sgfdda interval and ending time to 0 for that domain.
 --- NOTE: obs_nudge_opt is 0 for domain      3, setting obs nudging interval and ending time to 0 for that domain.
 --- NOTE: grid_fdda is 0 for domain      4, setting gfdda interval and ending time to 0 for that domain.
 --- NOTE: both grid_sfdda and pxlsm_soil_nudge are 0 for domain      4, setting sgfdda interval and ending time to 0 for that domain.
 --- NOTE: obs_nudge_opt is 0 for domain      4, setting obs nudging interval and ending time to 0 for that domain.
 bl_pbl_physics /= 4, implies mfshconv must be 0, resetting
 --- NOTE: num_soil_layers has been set to      4
 WRF V3.6 MODEL
  *************************************
  Parent domain
  ids,ide,jds,jde  1 271 1 181
  ims,ime,jms,jme  -4 34 -4 19
  ips,ipe,jps,jpe  1 27 1 12
  *************************************
 DYNAMICS OPTION: Eulerian Mass Coordinate
    alloc_space_field: domain  1 ,  95252168  bytes allocated
   med_initialdata_input: calling input_input
Timing for processing wrfinput file (stream 0) for domain        1:    3.84138 elapsed seconds
 INPUT LandUse = "USGS"
  LANDUSE TYPE = "USGS" FOUND 33  CATEGORIES 2  SEASONS WATER CATEGORY =  16  SNOW CATEGORY =  24
 INITIALIZE THREE Noah LSM RELATED TABLES
  LANDUSE TYPE = USGS FOUND 27  CATEGORIES
  INPUT SOIL TEXTURE CLASSIFICATION = STAS
  SOIL TEXTURE CLASSIFICATION = STAS FOUND 19  CATEGORIES
 *********************************************************************
 *             PROGRAM:WRF/CHEM V3.6 MODEL
 *                                                                   *
 *    PLEASE REPORT ANY BUGS TO WRF/CHEM HELP at                     *
 *                                                                   *
 *              wrfchemhelp.gsd@noaa.gov                             *
 *                                                                   *
 *********************************************************************
 WARNING: dust option 1 currently works only with the GOCART aerosol option.
 WARNING: sea salt option 1 currently works only with the GOCART aerosol option.
  *************************************
  Nesting domain
  ids,ide,jds,jde  1 361 1 253
  ims,ime,jms,jme  -4 48 -4 27
  ips,ipe,jps,jpe  1 36 1 16
  INTERMEDIATE domain
  ids,ide,jds,jde  74 199 47 136
  ims,ime,jms,jme  69 97 42 63
  ips,ipe,jps,jpe  72 87 45 53
  *************************************
 d01 2016-02-05_12:00:00  alloc_space_field: domain  2 ,  168236264  bytes allocated
 d01 2016-02-05_12:00:00  alloc_space_field: domain  2 ,  8036248  bytes allocated
 d01 2016-02-05_12:00:00 *** Initializing nest domain # 2 from an input file. ***
 d01 2016-02-05_12:00:00 med_initialdata_input: calling input_input
Timing for processing wrfinput file (stream 0) for domain        2:    6.63303 elapsed seconds
 INPUT LandUse = "USGS"
  LANDUSE TYPE = "USGS" FOUND 33  CATEGORIES 2  SEASONS WATER CATEGORY =  16  SNOW CATEGORY =  24
 INITIALIZE THREE Noah LSM RELATED TABLES
  LANDUSE TYPE = USGS FOUND 27  CATEGORIES
  INPUT SOIL TEXTURE CLASSIFICATION = STAS
  SOIL TEXTURE CLASSIFICATION = STAS FOUND 19  CATEGORIES
 *********************************************************************
 *             PROGRAM:WRF/CHEM V3.6 MODEL
 *                                                                   *
 *    PLEASE REPORT ANY BUGS TO WRF/CHEM HELP at                     *
 *                                                                   *
 *              wrfchemhelp.gsd@noaa.gov                             *
 *                                                                   *
 *********************************************************************
 WARNING: dust option 1 currently works only with the GOCART aerosol option.
 WARNING: sea salt option 1 currently works only with the GOCART aerosol option.
 INPUT LandUse = "USGS"
  LANDUSE TYPE = "USGS" FOUND 33  CATEGORIES 2  SEASONS WATER CATEGORY =  16  SNOW CATEGORY =  24
 INITIALIZE THREE Noah LSM RELATED TABLES
  LANDUSE TYPE = USGS FOUND 27  CATEGORIES
  INPUT SOIL TEXTURE CLASSIFICATION = STAS
  SOIL TEXTURE CLASSIFICATION = STAS FOUND 19  CATEGORIES
 *********************************************************************
 *             PROGRAM:WRF/CHEM V3.6 MODEL
 *                                                                   *
 *    PLEASE REPORT ANY BUGS TO WRF/CHEM HELP at                     *
 *                                                                   *
 *              wrfchemhelp.gsd@noaa.gov                             *
 *                                                                   *
 *********************************************************************
 WARNING: dust option 1 currently works only with the GOCART aerosol option.
 WARNING: sea salt option 1 currently works only with the GOCART aerosol option.
 INPUT LandUse = "USGS"
  LANDUSE TYPE = "USGS" FOUND 33  CATEGORIES 2  SEASONS WATER CATEGORY =  16  SNOW CATEGORY =  24
 INITIALIZE THREE Noah LSM RELATED TABLES
  LANDUSE TYPE = USGS FOUND 27  CATEGORIES
  INPUT SOIL TEXTURE CLASSIFICATION = STAS
  SOIL TEXTURE CLASSIFICATION = STAS FOUND 19  CATEGORIES
 *********************************************************************
 *             PROGRAM:WRF/CHEM V3.6 MODEL
 *                                                                   *
 *    PLEASE REPORT ANY BUGS TO WRF/CHEM HELP at                     *
 *                                                                   *
 *              wrfchemhelp.gsd@noaa.gov                             *
 *                                                                   *
 *********************************************************************
 WARNING: dust option 1 currently works only with the GOCART aerosol option.
 WARNING: sea salt option 1 currently works only with the GOCART aerosol option.
Timing for Writing wrfout_d01_2016-02-05_12:00:00 for domain        1:    1.41457 elapsed seconds
  mediation_integrate: med_read_wrf_chem_emissions: Open file wrfchemi_12z_d01
  HOURLY EMISSIONS UPDATE TIME         .0        .0
 mediation_integrate: med_read_wrf_chem_emissions: Read emissions for time 2016-02-05_12:00:00
 **WARNING** Time in input file not being checked **WARNING**
Timing for processing lateral boundary for domain        1:    3.09885 elapsed seconds
  Tile Strategy is not specified. Assuming 1D-Y
 WRF TILE   1 IS      1 IE     27 JS      1 JE     12
 WRF NUMBER OF TILES =   1
  photolysis_driver: called for domain  1
  *************************************
  Nesting domain
  ids,ide,jds,jde  1 307 1 241
  ims,ime,jms,jme  -4 42 -4 27
  ips,ipe,jps,jpe  1 31 1 15
  INTERMEDIATE domain
  ids,ide,jds,jde  124 231 35 120
  ims,ime,jms,jme  119 145 30 51
  ips,ipe,jps,jpe  122 135 33 41
  *************************************
 d02 2016-02-05_12:00:00  alloc_space_field: domain  3 ,  149693108  bytes allocated
 d02 2016-02-05_12:00:00  alloc_space_field: domain  3 ,  7482024  bytes allocated
 d02 2016-02-05_12:00:00 *** Initializing nest domain # 3 from an input file. ***
 d02 2016-02-05_12:00:00 med_initialdata_input: calling input_input
Timing for processing wrfinput file (stream 0) for domain        3:    5.39898 elapsed seconds
 INPUT LandUse = "USGS"
  LANDUSE TYPE = "USGS" FOUND 33  CATEGORIES 2  SEASONS WATER CATEGORY =  16  SNOW CATEGORY =  24
 INITIALIZE THREE Noah LSM RELATED TABLES
  LANDUSE TYPE = USGS FOUND 27  CATEGORIES
  INPUT SOIL TEXTURE CLASSIFICATION = STAS
  SOIL TEXTURE CLASSIFICATION = STAS FOUND 19  CATEGORIES
 *********************************************************************
 *             PROGRAM:WRF/CHEM V3.6 MODEL
 *                                                                   *
 *    PLEASE REPORT ANY BUGS TO WRF/CHEM HELP at                     *
 *                                                                   *
 *              wrfchemhelp.gsd@noaa.gov                             *
 *                                                                   *
 *********************************************************************
 WARNING: dust option 1 currently works only with the GOCART aerosol option.
 WARNING: sea salt option 1 currently works only with the GOCART aerosol option.
 INPUT LandUse = "USGS"
  LANDUSE TYPE = "USGS" FOUND 33  CATEGORIES 2  SEASONS WATER CATEGORY =  16  SNOW CATEGORY =  24
 INITIALIZE THREE Noah LSM RELATED TABLES
  LANDUSE TYPE = USGS FOUND 27  CATEGORIES
  INPUT SOIL TEXTURE CLASSIFICATION = STAS
  SOIL TEXTURE CLASSIFICATION = STAS FOUND 19  CATEGORIES
 *********************************************************************
 *             PROGRAM:WRF/CHEM V3.6 MODEL
 *                                                                   *
 *    PLEASE REPORT ANY BUGS TO WRF/CHEM HELP at                     *
 *                                                                   *
 *              wrfchemhelp.gsd@noaa.gov                             *
 *                                                                   *
 *********************************************************************
 WARNING: dust option 1 currently works only with the GOCART aerosol option.
 WARNING: sea salt option 1 currently works only with the GOCART aerosol option.
 INPUT LandUse = "USGS"
  LANDUSE TYPE = "USGS" FOUND 33  CATEGORIES 2  SEASONS WATER CATEGORY =  16  SNOW CATEGORY =  24
 INITIALIZE THREE Noah LSM RELATED TABLES
  LANDUSE TYPE = USGS FOUND 27  CATEGORIES
  INPUT SOIL TEXTURE CLASSIFICATION = STAS
  SOIL TEXTURE CLASSIFICATION = STAS FOUND 19  CATEGORIES
 *********************************************************************
 *             PROGRAM:WRF/CHEM V3.6 MODEL
 *                                                                   *
 *    PLEASE REPORT ANY BUGS TO WRF/CHEM HELP at                     *
 *                                                                   *
 *              wrfchemhelp.gsd@noaa.gov                             *
 *                                                                   *
 *********************************************************************
 WARNING: dust option 1 currently works only with the GOCART aerosol option.
 WARNING: sea salt option 1 currently works only with the GOCART aerosol option.
  *************************************
  Nesting domain
  ids,ide,jds,jde  1 217 1 388
  ims,ime,jms,jme  -4 33 -4 36
  ips,ipe,jps,jpe  1 22 1 25
  INTERMEDIATE domain
  ids,ide,jds,jde  225 302 83 217
  ims,ime,jms,jme  220 243 78 102
  ips,ipe,jps,jpe  223 233 81 92
  *************************************
 d02 2016-02-05_12:00:00  alloc_space_field: domain  4 ,  154732412  bytes allocated
 d02 2016-02-05_12:00:00  alloc_space_field: domain  4 ,  7557600  bytes allocated
 d02 2016-02-05_12:00:00 *** Initializing nest domain # 4 from an input file. ***
 d02 2016-02-05_12:00:00 med_initialdata_input: calling input_input
Timing for processing wrfinput file (stream 0) for domain        4:    6.75258 elapsed seconds
 INPUT LandUse = "USGS"
  LANDUSE TYPE = "USGS" FOUND 33  CATEGORIES 2  SEASONS WATER CATEGORY =  16  SNOW CATEGORY =  24
 INITIALIZE THREE Noah LSM RELATED TABLES
  LANDUSE TYPE = USGS FOUND 27  CATEGORIES
  INPUT SOIL TEXTURE CLASSIFICATION = STAS
  SOIL TEXTURE CLASSIFICATION = STAS FOUND 19  CATEGORIES
 *********************************************************************
 *             PROGRAM:WRF/CHEM V3.6 MODEL
 *                                                                   *
 *    PLEASE REPORT ANY BUGS TO WRF/CHEM HELP at                     *
 *                                                                   *
 *              wrfchemhelp.gsd@noaa.gov                             *
 *                                                                   *
 *********************************************************************
 WARNING: dust option 1 currently works only with the GOCART aerosol option.
 WARNING: sea salt option 1 currently works only with the GOCART aerosol option.
 INPUT LandUse = "USGS"
  LANDUSE TYPE = "USGS" FOUND 33  CATEGORIES 2  SEASONS WATER CATEGORY =  16  SNOW CATEGORY =  24
 INITIALIZE THREE Noah LSM RELATED TABLES
  LANDUSE TYPE = USGS FOUND 27  CATEGORIES
  INPUT SOIL TEXTURE CLASSIFICATION = STAS
  SOIL TEXTURE CLASSIFICATION = STAS FOUND 19  CATEGORIES
 *********************************************************************
 *             PROGRAM:WRF/CHEM V3.6 MODEL
 *                                                                   *
 *    PLEASE REPORT ANY BUGS TO WRF/CHEM HELP at                     *
 *                                                                   *
 *              wrfchemhelp.gsd@noaa.gov                             *
 *                                                                   *
 *********************************************************************
 WARNING: dust option 1 currently works only with the GOCART aerosol option.
 WARNING: sea salt option 1 currently works only with the GOCART aerosol option.
 INPUT LandUse = "USGS"
  LANDUSE TYPE = "USGS" FOUND 33  CATEGORIES 2  SEASONS WATER CATEGORY =  16  SNOW CATEGORY =  24
 INITIALIZE THREE Noah LSM RELATED TABLES
  LANDUSE TYPE = USGS FOUND 27  CATEGORIES
  INPUT SOIL TEXTURE CLASSIFICATION = STAS
  SOIL TEXTURE CLASSIFICATION = STAS FOUND 19  CATEGORIES
 *********************************************************************
 *             PROGRAM:WRF/CHEM V3.6 MODEL
 *                                                                   *
 *    PLEASE REPORT ANY BUGS TO WRF/CHEM HELP at                     *
 *                                                                   *
 *              wrfchemhelp.gsd@noaa.gov                             *
 *                                                                   *
 *********************************************************************
 WARNING: dust option 1 currently works only with the GOCART aerosol option.
 WARNING: sea salt option 1 currently works only with the GOCART aerosol option.
Timing for Writing wrfout_d02_2016-02-05_12:00:00 for domain        2:    1.92618 elapsed seconds
  mediation_integrate: med_read_wrf_chem_emissions: Open file wrfchemi_12z_d02
  HOURLY EMISSIONS UPDATE TIME         .0        .0
 mediation_integrate: med_read_wrf_chem_emissions: Read emissions for time 2016-02-05_12:00:00
 **WARNING** Time in input file not being checked **WARNING**
  Tile Strategy is not specified. Assuming 1D-Y
 WRF TILE   1 IS      1 IE     36 JS      1 JE     16
 WRF NUMBER OF TILES =   1
  photolysis_driver: called for domain  2
Timing for Writing wrfout_d03_2016-02-05_12:00:00 for domain        3:    1.82337 elapsed seconds
  mediation_integrate: med_read_wrf_chem_emissions: Open file wrfchemi_12z_d03
  HOURLY EMISSIONS UPDATE TIME         .0        .0
 mediation_integrate: med_read_wrf_chem_emissions: Read emissions for time 2016-02-05_12:00:00
 **WARNING** Time in input file not being checked **WARNING**
  Tile Strategy is not specified. Assuming 1D-Y
 WRF TILE   1 IS      1 IE     31 JS      1 JE     15
 WRF NUMBER OF TILES =   1
  photolysis_driver: called for domain  3
Timing for main: time 2016-02-05_12:00:13 on domain   3:    4.93548 elapsed seconds
Timing for main: time 2016-02-05_12:00:26 on domain   3:     .19122 elapsed seconds
Timing for main: time 2016-02-05_12:00:40 on domain   3:     .18832 elapsed seconds
Timing for Writing wrfout_d04_2016-02-05_12:00:00 for domain        4:    1.86936 elapsed seconds
  mediation_integrate: med_read_wrf_chem_emissions: Open file wrfchemi_12z_d04
  HOURLY EMISSIONS UPDATE TIME         .0        .0
 mediation_integrate: med_read_wrf_chem_emissions: Read emissions for time 2016-02-05_12:00:00
 **WARNING** Time in input file not being checked **WARNING**
  Tile Strategy is not specified. Assuming 1D-Y
 WRF TILE   1 IS      1 IE     22 JS      1 JE     25
 WRF NUMBER OF TILES =   1
  photolysis_driver: called for domain  4
Timing for main: time 2016-02-05_12:00:20 on domain   4:    5.25483 elapsed seconds
Timing for main: time 2016-02-05_12:00:40 on domain   4:     .22800 elapsed seconds
Timing for main: time 2016-02-05_12:00:40 on domain   2:   31.21768 elapsed seconds
Timing for main: time 2016-02-05_12:00:53 on domain   3:     .19501 elapsed seconds
Timing for main: time 2016-02-05_12:01:06 on domain   3:     .18076 elapsed seconds
Timing for main: time 2016-02-05_12:01:20 on domain   3:     .17968 elapsed seconds
Timing for main: time 2016-02-05_12:01:00 on domain   4:     .21588 elapsed seconds
Timing for main: time 2016-02-05_12:01:20 on domain   4:     .21190 elapsed seconds
Timing for main: time 2016-02-05_12:01:20 on domain   2:    1.62635 elapsed seconds
Timing for main: time 2016-02-05_12:01:33 on domain   3:     .19171 elapsed seconds
Timing for main: time 2016-02-05_12:01:46 on domain   3:     .17999 elapsed seconds
Timing for main: time 2016-02-05_12:02:00 on domain   3:     .18206 elapsed seconds
Timing for main: time 2016-02-05_12:01:40 on domain   4:     .21605 elapsed seconds
Timing for main: time 2016-02-05_12:02:00 on domain   4:     .21293 elapsed seconds
Timing for main: time 2016-02-05_12:02:00 on domain   2:    1.66343 elapsed seconds
Timing for main: time 2016-02-05_12:02:00 on domain   1:   50.15528 elapsed seconds
Timing for main: time 2016-02-05_12:02:13 on domain   3:     .19273 elapsed seconds
Timing for main: time 2016-02-05_12:02:26 on domain   3:     .18009 elapsed seconds
Timing for main: time 2016-02-05_12:02:40 on domain   3:     .22518 elapsed seconds
Timing for main: time 2016-02-05_12:02:20 on domain   4:     .21611 elapsed seconds
Timing for main: time 2016-02-05_12:02:40 on domain   4:     .21132 elapsed seconds
Timing for main: time 2016-02-05_12:02:40 on domain   2:    1.73623 elapsed seconds
Timing for main: time 2016-02-05_12:02:53 on domain   3:     .19289 elapsed seconds
Timing for main: time 2016-02-05_12:03:06 on domain   3:     .17923 elapsed seconds
Timing for main: time 2016-02-05_12:03:20 on domain   3:     .18046 elapsed seconds
Timing for main: time 2016-02-05_12:03:00 on domain   4:     .21758 elapsed seconds
Timing for main: time 2016-02-05_12:03:20 on domain   4:     .21200 elapsed seconds
Timing for main: time 2016-02-05_12:03:20 on domain   2:    1.66352 elapsed seconds
Timing for main: time 2016-02-05_12:03:33 on domain   3:     .19267 elapsed seconds
Timing for main: time 2016-02-05_12:03:46 on domain   3:     .17952 elapsed seconds
Timing for main: time 2016-02-05_12:04:00 on domain   3:     .17962 elapsed seconds
Timing for main: time 2016-02-05_12:03:40 on domain   4:     .22384 elapsed seconds
Timing for main: time 2016-02-05_12:04:00 on domain   4:     .22018 elapsed seconds
Timing for main: time 2016-02-05_12:04:00 on domain   2:    1.67763 elapsed seconds
Timing for main: time 2016-02-05_12:04:00 on domain   1:    5.41282 elapsed seconds
Timing for main: time 2016-02-05_12:04:13 on domain   3:     .20369 elapsed seconds
Timing for main: time 2016-02-05_12:04:26 on domain   3:     .18551 elapsed seconds
Timing for main: time 2016-02-05_12:04:40 on domain   3:     .19767 elapsed seconds
Timing for main: time 2016-02-05_12:04:20 on domain   4:     .22930 elapsed seconds
Timing for main: time 2016-02-05_12:04:40 on domain   4:     .22296 elapsed seconds
Timing for main: time 2016-02-05_12:04:40 on domain   2:    1.74002 elapsed seconds
Timing for main: time 2016-02-05_12:04:53 on domain   3:     .19313 elapsed seconds
Timing for main: time 2016-02-05_12:05:06 on domain   3:     .18755 elapsed seconds
Timing for main: time 2016-02-05_12:05:20 on domain   3:     .18208 elapsed seconds
Timing for main: time 2016-02-05_12:05:00 on domain   4:     .22683 elapsed seconds
Timing for main: time 2016-02-05_12:05:20 on domain   4:     .21651 elapsed seconds
Timing for main: time 2016-02-05_12:05:20 on domain   2:    1.70500 elapsed seconds
Timing for main: time 2016-02-05_12:05:33 on domain   3:     .19256 elapsed seconds
Timing for main: time 2016-02-05_12:05:46 on domain   3:     .18265 elapsed seconds
Timing for main: time 2016-02-05_12:06:00 on domain   3:     .17899 elapsed seconds
Timing for main: time 2016-02-05_12:05:40 on domain   4:     .21645 elapsed seconds
Timing for main: time 2016-02-05_12:06:00 on domain   4:     .21246 elapsed seconds
Timing for main: time 2016-02-05_12:06:00 on domain   2:    1.70964 elapsed seconds
Timing for main: time 2016-02-05_12:06:00 on domain   1:    5.53006 elapsed seconds
Timing for main: time 2016-02-05_12:06:13 on domain   3:     .19311 elapsed seconds
Timing for main: time 2016-02-05_12:06:26 on domain   3:     .17953 elapsed seconds
Timing for main: time 2016-02-05_12:06:40 on domain   3:     .17962 elapsed seconds
Timing for main: time 2016-02-05_12:06:20 on domain   4:     .21671 elapsed seconds
Timing for main: time 2016-02-05_12:06:40 on domain   4:     .21272 elapsed seconds
Timing for main: time 2016-02-05_12:06:40 on domain   2:    1.66922 elapsed seconds
Timing for main: time 2016-02-05_12:06:53 on domain   3:     .19297 elapsed seconds
Timing for main: time 2016-02-05_12:07:06 on domain   3:     .17877 elapsed seconds
Timing for main: time 2016-02-05_12:07:20 on domain   3:     .17949 elapsed seconds
Timing for main: time 2016-02-05_12:07:00 on domain   4:     .21671 elapsed seconds
Timing for main: time 2016-02-05_12:07:20 on domain   4:     .21470 elapsed seconds
Timing for main: time 2016-02-05_12:07:20 on domain   2:    1.66466 elapsed seconds
Timing for main: time 2016-02-05_12:07:33 on domain   3:     .19306 elapsed seconds
Timing for main: time 2016-02-05_12:07:46 on domain   3:     .18108 elapsed seconds
Timing for main: time 2016-02-05_12:08:00 on domain   3:     .17988 elapsed seconds
Timing for main: time 2016-02-05_12:07:40 on domain   4:     .23305 elapsed seconds
Timing for main: time 2016-02-05_12:08:00 on domain   4:     .21385 elapsed seconds
Timing for main: time 2016-02-05_12:08:00 on domain   2:    1.68302 elapsed seconds
Timing for main: time 2016-02-05_12:08:00 on domain   1:    5.37605 elapsed seconds
Timing for main: time 2016-02-05_12:08:13 on domain   3:     .19350 elapsed seconds
Timing for main: time 2016-02-05_12:08:26 on domain   3:     .19273 elapsed seconds
Timing for main: time 2016-02-05_12:08:40 on domain   3:     .17948 elapsed seconds
Timing for main: time 2016-02-05_12:08:20 on domain   4:     .21678 elapsed seconds
Timing for main: time 2016-02-05_12:08:40 on domain   4:     .21312 elapsed seconds
Timing for main: time 2016-02-05_12:08:40 on domain   2:    1.68395 elapsed seconds
Timing for main: time 2016-02-05_12:08:53 on domain   3:     .19284 elapsed seconds
Timing for main: time 2016-02-05_12:09:06 on domain   3:     .17942 elapsed seconds
Timing for main: time 2016-02-05_12:09:20 on domain   3:     .17974 elapsed seconds
Timing for main: time 2016-02-05_12:09:00 on domain   4:     .21697 elapsed seconds
Timing for main: time 2016-02-05_12:09:20 on domain   4:     .24550 elapsed seconds
Timing for main: time 2016-02-05_12:09:20 on domain   2:    1.69682 elapsed seconds
Timing for main: time 2016-02-05_12:09:33 on domain   3:     .19287 elapsed seconds
Timing for main: time 2016-02-05_12:09:46 on domain   3:     .18108 elapsed seconds
Timing for main: time 2016-02-05_12:10:00 on domain   3:     .17778 elapsed seconds
Timing for main: time 2016-02-05_12:09:40 on domain   4:     .21689 elapsed seconds
Timing for main: time 2016-02-05_12:10:00 on domain   4:     .22272 elapsed seconds
Timing for main: time 2016-02-05_12:10:00 on domain   2:    1.67309 elapsed seconds
Timing for main: time 2016-02-05_12:10:00 on domain   1:    5.41262 elapsed seconds
Timing for main: time 2016-02-05_12:10:13 on domain   3:     .20117 elapsed seconds
Timing for main: time 2016-02-05_12:10:26 on domain   3:     .18025 elapsed seconds
Timing for main: time 2016-02-05_12:10:40 on domain   3:     .17967 elapsed seconds
Timing for main: time 2016-02-05_12:10:20 on domain   4:     .21688 elapsed seconds
Timing for main: time 2016-02-05_12:10:40 on domain   4:     .26905 elapsed seconds
Timing for main: time 2016-02-05_12:10:40 on domain   2:    1.74510 elapsed seconds
Timing for main: time 2016-02-05_12:10:53 on domain   3:     .19531 elapsed seconds
Timing for main: time 2016-02-05_12:11:06 on domain   3:     .24151 elapsed seconds
Timing for main: time 2016-02-05_12:11:20 on domain   3:     .18994 elapsed seconds
Timing for main: time 2016-02-05_12:11:00 on domain   4:     .21732 elapsed seconds
Timing for main: time 2016-02-05_12:11:20 on domain   4:     .21270 elapsed seconds
Timing for main: time 2016-02-05_12:11:20 on domain   2:    1.77701 elapsed seconds
Timing for main: time 2016-02-05_12:11:33 on domain   3:     .19583 elapsed seconds
Timing for main: time 2016-02-05_12:11:46 on domain   3:     .17921 elapsed seconds
Timing for main: time 2016-02-05_12:12:00 on domain   3:     .17912 elapsed seconds
Timing for main: time 2016-02-05_12:11:40 on domain   4:     .21746 elapsed seconds
Timing for main: time 2016-02-05_12:12:00 on domain   4:     .21301 elapsed seconds
Timing for main: time 2016-02-05_12:12:00 on domain   2:    1.66795 elapsed seconds
Timing for main: time 2016-02-05_12:12:00 on domain   1:    5.55578 elapsed seconds
Timing for main: time 2016-02-05_12:12:13 on domain   3:     .19238 elapsed seconds
Timing for main: time 2016-02-05_12:12:26 on domain   3:     .18076 elapsed seconds
Timing for main: time 2016-02-05_12:12:40 on domain   3:     .17870 elapsed seconds
Timing for main: time 2016-02-05_12:12:20 on domain   4:     .21724 elapsed seconds
Timing for main: time 2016-02-05_12:12:40 on domain   4:     .21338 elapsed seconds
Timing for main: time 2016-02-05_12:12:40 on domain   2:    1.67175 elapsed seconds
Timing for main: time 2016-02-05_12:12:53 on domain   3:     .19499 elapsed seconds
Timing for main: time 2016-02-05_12:13:06 on domain   3:     .17950 elapsed seconds
Timing for main: time 2016-02-05_12:13:20 on domain   3:     .17945 elapsed seconds
Timing for main: time 2016-02-05_12:13:00 on domain   4:     .21830 elapsed seconds
Timing for main: time 2016-02-05_12:13:20 on domain   4:     .21292 elapsed seconds
Timing for main: time 2016-02-05_12:13:20 on domain   2:    1.66754 elapsed seconds
Timing for main: time 2016-02-05_12:13:33 on domain   3:     .19293 elapsed seconds
Timing for main: time 2016-02-05_12:13:46 on domain   3:     .17907 elapsed seconds
Timing for main: time 2016-02-05_12:14:00 on domain   3:     .17980 elapsed seconds
Timing for main: time 2016-02-05_12:13:40 on domain   4:     .21717 elapsed seconds
Timing for main: time 2016-02-05_12:14:00 on domain   4:     .21304 elapsed seconds
Timing for main: time 2016-02-05_12:14:00 on domain   2:    1.66336 elapsed seconds
Timing for main: time 2016-02-05_12:14:00 on domain   1:    5.36378 elapsed seconds
Timing for main: time 2016-02-05_12:14:13 on domain   3:     .19218 elapsed seconds
Timing for main: time 2016-02-05_12:14:26 on domain   3:     .18041 elapsed seconds
Timing for main: time 2016-02-05_12:14:40 on domain   3:     .17966 elapsed seconds
Timing for main: time 2016-02-05_12:14:20 on domain   4:     .21749 elapsed seconds
Timing for main: time 2016-02-05_12:14:40 on domain   4:     .21323 elapsed seconds
Timing for main: time 2016-02-05_12:14:40 on domain   2:    1.67119 elapsed seconds
Timing for main: time 2016-02-05_12:14:53 on domain   3:     .19363 elapsed seconds
Timing for main: time 2016-02-05_12:15:06 on domain   3:     .18101 elapsed seconds
Timing for main: time 2016-02-05_12:15:20 on domain   3:     .18749 elapsed seconds
Timing for main: time 2016-02-05_12:15:00 on domain   4:     .22659 elapsed seconds
Timing for main: time 2016-02-05_12:15:20 on domain   4:     .21323 elapsed seconds
Timing for main: time 2016-02-05_12:15:20 on domain   2:    1.68481 elapsed seconds
Timing for main: time 2016-02-05_12:15:33 on domain   3:     .19275 elapsed seconds
Timing for main: time 2016-02-05_12:15:46 on domain   3:     .17945 elapsed seconds
Timing for main: time 2016-02-05_12:16:00 on domain   3:     .17996 elapsed seconds
Timing for main: time 2016-02-05_12:15:40 on domain   4:     .21797 elapsed seconds
Timing for main: time 2016-02-05_12:16:00 on domain   4:     .21339 elapsed seconds
Timing for main: time 2016-02-05_12:16:00 on domain   2:    1.67605 elapsed seconds
Timing for main: time 2016-02-05_12:16:00 on domain   1:    5.39201 elapsed seconds
Timing for main: time 2016-02-05_12:16:13 on domain   3:     .19317 elapsed seconds
Timing for main: time 2016-02-05_12:16:26 on domain   3:     .18326 elapsed seconds
Timing for main: time 2016-02-05_12:16:40 on domain   3:     .18033 elapsed seconds
Timing for main: time 2016-02-05_12:16:20 on domain   4:     .21728 elapsed seconds
Timing for main: time 2016-02-05_12:16:40 on domain   4:     .21454 elapsed seconds
Timing for main: time 2016-02-05_12:16:40 on domain   2:    1.67799 elapsed seconds
Timing for main: time 2016-02-05_12:16:53 on domain   3:     .19255 elapsed seconds
Timing for main: time 2016-02-05_12:17:06 on domain   3:     .17924 elapsed seconds
Timing for main: time 2016-02-05_12:17:20 on domain   3:     .17948 elapsed seconds
Timing for main: time 2016-02-05_12:17:00 on domain   4:     .21756 elapsed seconds
Timing for main: time 2016-02-05_12:17:20 on domain   4:     .21346 elapsed seconds
Timing for main: time 2016-02-05_12:17:20 on domain   2:    1.70239 elapsed seconds
Timing for main: time 2016-02-05_12:17:33 on domain   3:     .19236 elapsed seconds
Timing for main: time 2016-02-05_12:17:46 on domain   3:     .17995 elapsed seconds
Timing for main: time 2016-02-05_12:18:00 on domain   3:     .17929 elapsed seconds
Timing for main: time 2016-02-05_12:17:40 on domain   4:     .21705 elapsed seconds
Timing for main: time 2016-02-05_12:18:00 on domain   4:     .21374 elapsed seconds
Timing for main: time 2016-02-05_12:18:00 on domain   2:    1.66480 elapsed seconds
Timing for main: time 2016-02-05_12:18:00 on domain   1:    5.41156 elapsed seconds
Timing for main: time 2016-02-05_12:18:13 on domain   3:     .19274 elapsed seconds
Timing for main: time 2016-02-05_12:18:26 on domain   3:     .17981 elapsed seconds
Timing for main: time 2016-02-05_12:18:40 on domain   3:     .17893 elapsed seconds
Timing for main: time 2016-02-05_12:18:20 on domain   4:     .21722 elapsed seconds
Timing for main: time 2016-02-05_12:18:40 on domain   4:     .21555 elapsed seconds
Timing for main: time 2016-02-05_12:18:40 on domain   2:    1.67360 elapsed seconds
Timing for main: time 2016-02-05_12:18:53 on domain   3:     .19592 elapsed seconds
Timing for main: time 2016-02-05_12:19:06 on domain   3:     .17940 elapsed seconds
Timing for main: time 2016-02-05_12:19:20 on domain   3:     .18103 elapsed seconds
Timing for main: time 2016-02-05_12:19:00 on domain   4:     .21711 elapsed seconds
Timing for main: time 2016-02-05_12:19:20 on domain   4:     .21354 elapsed seconds
Timing for main: time 2016-02-05_12:19:20 on domain   2:    1.66848 elapsed seconds
Timing for main: time 2016-02-05_12:19:33 on domain   3:     .19884 elapsed seconds
Timing for main: time 2016-02-05_12:19:46 on domain   3:     .17756 elapsed seconds
Timing for main: time 2016-02-05_12:20:00 on domain   3:     .18030 elapsed seconds
Timing for main: time 2016-02-05_12:19:40 on domain   4:     .21722 elapsed seconds
Timing for main: time 2016-02-05_12:20:00 on domain   4:     .22324 elapsed seconds
Timing for main: time 2016-02-05_12:20:00 on domain   2:    1.67906 elapsed seconds
Timing for main: time 2016-02-05_12:20:00 on domain   1:    5.38144 elapsed seconds
Timing for main: time 2016-02-05_12:20:13 on domain   3:     .19275 elapsed seconds
Timing for main: time 2016-02-05_12:20:26 on domain   3:     .19364 elapsed seconds
Timing for main: time 2016-02-05_12:20:40 on domain   3:     .17919 elapsed seconds
Timing for main: time 2016-02-05_12:20:20 on domain   4:     .21711 elapsed seconds
Timing for main: time 2016-02-05_12:20:40 on domain   4:     .21559 elapsed seconds
Timing for main: time 2016-02-05_12:20:40 on domain   2:    1.68773 elapsed seconds
Timing for main: time 2016-02-05_12:20:53 on domain   3:     .19212 elapsed seconds
Timing for main: time 2016-02-05_12:21:06 on domain   3:     .18018 elapsed seconds
Timing for main: time 2016-02-05_12:21:20 on domain   3:     .18116 elapsed seconds
Timing for main: time 2016-02-05_12:21:00 on domain   4:     .21710 elapsed seconds
Timing for main: time 2016-02-05_12:21:20 on domain   4:     .21330 elapsed seconds
Timing for main: time 2016-02-05_12:21:20 on domain   2:    1.67669 elapsed seconds
Timing for main: time 2016-02-05_12:21:33 on domain   3:     .19307 elapsed seconds
Timing for main: time 2016-02-05_12:21:46 on domain   3:     .18559 elapsed seconds
Timing for main: time 2016-02-05_12:22:00 on domain   3:     .17917 elapsed seconds
Timing for main: time 2016-02-05_12:21:40 on domain   4:     .21754 elapsed seconds
Timing for main: time 2016-02-05_12:22:00 on domain   4:     .21390 elapsed seconds
Timing for main: time 2016-02-05_12:22:00 on domain   2:    1.67247 elapsed seconds
Timing for main: time 2016-02-05_12:22:00 on domain   1:    5.39686 elapsed seconds
Timing for main: time 2016-02-05_12:22:13 on domain   3:     .19252 elapsed seconds
Timing for main: time 2016-02-05_12:22:26 on domain   3:     .17923 elapsed seconds
Timing for main: time 2016-02-05_12:22:40 on domain   3:     .18146 elapsed seconds
Timing for main: time 2016-02-05_12:22:20 on domain   4:     .21744 elapsed seconds
Timing for main: time 2016-02-05_12:22:40 on domain   4:     .21338 elapsed seconds
Timing for main: time 2016-02-05_12:22:40 on domain   2:    1.67316 elapsed seconds
Timing for main: time 2016-02-05_12:22:53 on domain   3:     .19251 elapsed seconds
Timing for main: time 2016-02-05_12:23:06 on domain   3:     .17963 elapsed seconds
Timing for main: time 2016-02-05_12:23:20 on domain   3:     .17944 elapsed seconds
Timing for main: time 2016-02-05_12:23:00 on domain   4:     .21847 elapsed seconds
Timing for main: time 2016-02-05_12:23:20 on domain   4:     .21472 elapsed seconds
Timing for main: time 2016-02-05_12:23:20 on domain   2:    1.66810 elapsed seconds
Timing for main: time 2016-02-05_12:23:33 on domain   3:     .19239 elapsed seconds
Timing for main: time 2016-02-05_12:23:46 on domain   3:     .18013 elapsed seconds
Timing for main: time 2016-02-05_12:24:00 on domain   3:     .17883 elapsed seconds
Timing for main: time 2016-02-05_12:23:40 on domain   4:     .21718 elapsed seconds
Timing for main: time 2016-02-05_12:24:00 on domain   4:     .21563 elapsed seconds
Timing for main: time 2016-02-05_12:24:00 on domain   2:    1.66700 elapsed seconds
Timing for main: time 2016-02-05_12:24:00 on domain   1:    5.37378 elapsed seconds
Timing for main: time 2016-02-05_12:24:13 on domain   3:     .19270 elapsed seconds
Timing for main: time 2016-02-05_12:24:26 on domain   3:     .17911 elapsed seconds
Timing for main: time 2016-02-05_12:24:40 on domain   3:     .17988 elapsed seconds
Timing for main: time 2016-02-05_12:24:20 on domain   4:     .21709 elapsed seconds
Timing for main: time 2016-02-05_12:24:40 on domain   4:     .21339 elapsed seconds
Timing for main: time 2016-02-05_12:24:40 on domain   2:    1.67161 elapsed seconds
Timing for main: time 2016-02-05_12:24:53 on domain   3:     .19244 elapsed seconds
Timing for main: time 2016-02-05_12:25:06 on domain   3:     .17930 elapsed seconds
Timing for main: time 2016-02-05_12:25:20 on domain   3:     .17924 elapsed seconds
Timing for main: time 2016-02-05_12:25:00 on domain   4:     .22731 elapsed seconds
Timing for main: time 2016-02-05_12:25:20 on domain   4:     .21407 elapsed seconds
Timing for main: time 2016-02-05_12:25:20 on domain   2:    1.67639 elapsed seconds
Timing for main: time 2016-02-05_12:25:33 on domain   3:     .20081 elapsed seconds
Timing for main: time 2016-02-05_12:25:46 on domain   3:     .17903 elapsed seconds
Timing for main: time 2016-02-05_12:26:00 on domain   3:     .18016 elapsed seconds
Timing for main: time 2016-02-05_12:25:40 on domain   4:     .21691 elapsed seconds
Timing for main: time 2016-02-05_12:26:00 on domain   4:     .21394 elapsed seconds
Timing for main: time 2016-02-05_12:26:00 on domain   2:    1.72156 elapsed seconds
Timing for main: time 2016-02-05_12:26:00 on domain   1:    5.42874 elapsed seconds
Timing for main: time 2016-02-05_12:26:13 on domain   3:     .19322 elapsed seconds
Timing for main: time 2016-02-05_12:26:26 on domain   3:     .17904 elapsed seconds
Timing for main: time 2016-02-05_12:26:40 on domain   3:     .17869 elapsed seconds
Timing for main: time 2016-02-05_12:26:20 on domain   4:     .21929 elapsed seconds
Timing for main: time 2016-02-05_12:26:40 on domain   4:     .21239 elapsed seconds
Timing for main: time 2016-02-05_12:26:40 on domain   2:    1.68199 elapsed seconds
Timing for main: time 2016-02-05_12:26:53 on domain   3:     .19649 elapsed seconds
Timing for main: time 2016-02-05_12:27:06 on domain   3:     .18339 elapsed seconds
Timing for main: time 2016-02-05_12:27:20 on domain   3:     .17921 elapsed seconds
Timing for main: time 2016-02-05_12:27:00 on domain   4:     .21946 elapsed seconds
Timing for main: time 2016-02-05_12:27:20 on domain   4:     .21463 elapsed seconds
Timing for main: time 2016-02-05_12:27:20 on domain   2:    1.72502 elapsed seconds
Timing for main: time 2016-02-05_12:27:33 on domain   3:     .19397 elapsed seconds
Timing for main: time 2016-02-05_12:27:46 on domain   3:     .18030 elapsed seconds
Timing for main: time 2016-02-05_12:28:00 on domain   3:     .17974 elapsed seconds
Timing for main: time 2016-02-05_12:27:40 on domain   4:     .21725 elapsed seconds
Timing for main: time 2016-02-05_12:28:00 on domain   4:     .21376 elapsed seconds
Timing for main: time 2016-02-05_12:28:00 on domain   2:    1.66770 elapsed seconds
Timing for main: time 2016-02-05_12:28:00 on domain   1:    5.43427 elapsed seconds
  photolysis_driver: called for domain  1
Timing for main: time 2016-02-05_12:28:13 on domain   3:     .19295 elapsed seconds
Timing for main: time 2016-02-05_12:28:26 on domain   3:     .17866 elapsed seconds
Timing for main: time 2016-02-05_12:28:40 on domain   3:     .17924 elapsed seconds
Timing for main: time 2016-02-05_12:28:20 on domain   4:     .21746 elapsed seconds
Timing for main: time 2016-02-05_12:28:40 on domain   4:     .21367 elapsed seconds
Timing for main: time 2016-02-05_12:28:40 on domain   2:    1.67248 elapsed seconds
Timing for main: time 2016-02-05_12:28:53 on domain   3:     .19309 elapsed seconds
Timing for main: time 2016-02-05_12:29:06 on domain   3:     .17895 elapsed seconds
Timing for main: time 2016-02-05_12:29:20 on domain   3:     .17939 elapsed seconds
Timing for main: time 2016-02-05_12:29:00 on domain   4:     .21749 elapsed seconds
Timing for main: time 2016-02-05_12:29:20 on domain   4:     .21394 elapsed seconds
Timing for main: time 2016-02-05_12:29:20 on domain   2:    1.66598 elapsed seconds
  photolysis_driver: called for domain  2
Timing for main: time 2016-02-05_12:29:33 on domain   3:     .19378 elapsed seconds
Timing for main: time 2016-02-05_12:29:46 on domain   3:     .17891 elapsed seconds
  photolysis_driver: called for domain  3
Timing for main: time 2016-02-05_12:30:00 on domain   3:    1.04281 elapsed seconds
Timing for main: time 2016-02-05_12:29:40 on domain   4:     .21721 elapsed seconds
  photolysis_driver: called for domain  4
Timing for main: time 2016-02-05_12:30:00 on domain   4:    1.23679 elapsed seconds
Timing for main: time 2016-02-05_12:30:00 on domain   2:    4.64509 elapsed seconds
Timing for main: time 2016-02-05_12:30:00 on domain   1:    9.03084 elapsed seconds
Timing for main: time 2016-02-05_12:30:13 on domain   3:     .36249 elapsed seconds
Timing for main: time 2016-02-05_12:30:26 on domain   3:     .17783 elapsed seconds
Timing for main: time 2016-02-05_12:30:40 on domain   3:     .24839 elapsed seconds
Timing for main: time 2016-02-05_12:30:20 on domain   4:     .41723 elapsed seconds
Timing for main: time 2016-02-05_12:30:40 on domain   4:     .21240 elapsed seconds
Timing for main: time 2016-02-05_12:30:40 on domain   2:    2.34770 elapsed seconds
Timing for main: time 2016-02-05_12:30:53 on domain   3:     .19283 elapsed seconds
Timing for main: time 2016-02-05_12:31:06 on domain   3:     .17841 elapsed seconds
Timing for main: time 2016-02-05_12:31:20 on domain   3:     .18041 elapsed seconds
Timing for main: time 2016-02-05_12:31:00 on domain   4:     .21604 elapsed seconds
Timing for main: time 2016-02-05_12:31:20 on domain   4:     .21292 elapsed seconds
Timing for main: time 2016-02-05_12:31:20 on domain   2:    1.66601 elapsed seconds
Timing for main: time 2016-02-05_12:31:33 on domain   3:     .19168 elapsed seconds
Timing for main: time 2016-02-05_12:31:46 on domain   3:     .17804 elapsed seconds
Timing for main: time 2016-02-05_12:32:00 on domain   3:     .17901 elapsed seconds
Timing for main: time 2016-02-05_12:31:40 on domain   4:     .21718 elapsed seconds
Timing for main: time 2016-02-05_12:32:00 on domain   4:     .21323 elapsed seconds
Timing for main: time 2016-02-05_12:32:00 on domain   2:    1.67095 elapsed seconds
Timing for main: time 2016-02-05_12:32:00 on domain   1:    6.20834 elapsed seconds
Timing for main: time 2016-02-05_12:32:13 on domain   3:     .19323 elapsed seconds
Timing for main: time 2016-02-05_12:32:26 on domain   3:     .17674 elapsed seconds
Timing for main: time 2016-02-05_12:32:40 on domain   3:     .17862 elapsed seconds
Timing for main: time 2016-02-05_12:32:20 on domain   4:     .21849 elapsed seconds
Timing for main: time 2016-02-05_12:32:40 on domain   4:     .21237 elapsed seconds
Timing for main: time 2016-02-05_12:32:40 on domain   2:    1.66771 elapsed seconds
Timing for main: time 2016-02-05_12:32:53 on domain   3:     .19165 elapsed seconds
Timing for main: time 2016-02-05_12:33:06 on domain   3:     .17823 elapsed seconds
Timing for main: time 2016-02-05_12:33:20 on domain   3:     .17800 elapsed seconds
Timing for main: time 2016-02-05_12:33:00 on domain   4:     .21609 elapsed seconds
Timing for main: time 2016-02-05_12:33:20 on domain   4:     .21260 elapsed seconds
Timing for main: time 2016-02-05_12:33:20 on domain   2:    1.65935 elapsed seconds
Timing for main: time 2016-02-05_12:33:33 on domain   3:     .19315 elapsed seconds
Timing for main: time 2016-02-05_12:33:46 on domain   3:     .17848 elapsed seconds
Timing for main: time 2016-02-05_12:34:00 on domain   3:     .17784 elapsed seconds
Timing for main: time 2016-02-05_12:33:40 on domain   4:     .21604 elapsed seconds
Timing for main: time 2016-02-05_12:34:00 on domain   4:     .21267 elapsed seconds
Timing for main: time 2016-02-05_12:34:00 on domain   2:    1.65937 elapsed seconds
Timing for main: time 2016-02-05_12:34:00 on domain   1:    5.34651 elapsed seconds
Timing for main: time 2016-02-05_12:34:13 on domain   3:     .19237 elapsed seconds
Timing for main: time 2016-02-05_12:34:26 on domain   3:     .17836 elapsed seconds
Timing for main: time 2016-02-05_12:34:40 on domain   3:     .17792 elapsed seconds
Timing for main: time 2016-02-05_12:34:20 on domain   4:     .21862 elapsed seconds
Timing for main: time 2016-02-05_12:34:40 on domain   4:     .21327 elapsed seconds
Timing for main: time 2016-02-05_12:34:40 on domain   2:    1.66928 elapsed seconds
Timing for main: time 2016-02-05_12:34:53 on domain   3:     .19180 elapsed seconds
Timing for main: time 2016-02-05_12:35:06 on domain   3:     .17773 elapsed seconds
Timing for main: time 2016-02-05_12:35:20 on domain   3:     .17838 elapsed seconds
Timing for main: time 2016-02-05_12:35:00 on domain   4:     .22564 elapsed seconds
Timing for main: time 2016-02-05_12:35:20 on domain   4:     .21331 elapsed seconds
Timing for main: time 2016-02-05_12:35:20 on domain   2:    1.67230 elapsed seconds
Timing for main: time 2016-02-05_12:35:33 on domain   3:     .19135 elapsed seconds
Timing for main: time 2016-02-05_12:35:46 on domain   3:     .18744 elapsed seconds
Timing for main: time 2016-02-05_12:36:00 on domain   3:     .17938 elapsed seconds
Timing for main: time 2016-02-05_12:35:40 on domain   4:     .21548 elapsed seconds
Timing for main: time 2016-02-05_12:36:00 on domain   4:     .21316 elapsed seconds
Timing for main: time 2016-02-05_12:36:00 on domain   2:    1.67087 elapsed seconds
Timing for main: time 2016-02-05_12:36:00 on domain   1:    5.37883 elapsed seconds
Timing for main: time 2016-02-05_12:36:13 on domain   3:     .19159 elapsed seconds
Timing for main: time 2016-02-05_12:36:26 on domain   3:     .17844 elapsed seconds
Timing for main: time 2016-02-05_12:36:40 on domain   3:     .18499 elapsed seconds
Timing for main: time 2016-02-05_12:36:20 on domain   4:     .21625 elapsed seconds
Timing for main: time 2016-02-05_12:36:40 on domain   4:     .21306 elapsed seconds
Timing for main: time 2016-02-05_12:36:40 on domain   2:    1.67039 elapsed seconds
Timing for main: time 2016-02-05_12:36:53 on domain   3:     .19218 elapsed seconds
Timing for main: time 2016-02-05_12:37:06 on domain   3:     .18184 elapsed seconds
Timing for main: time 2016-02-05_12:37:20 on domain   3:     .17834 elapsed seconds
Timing for main: time 2016-02-05_12:37:00 on domain   4:     .21607 elapsed seconds
Timing for main: time 2016-02-05_12:37:20 on domain   4:     .21306 elapsed seconds
Timing for main: time 2016-02-05_12:37:20 on domain   2:    1.67462 elapsed seconds
Timing for main: time 2016-02-05_12:37:33 on domain   3:     .19109 elapsed seconds
Timing for main: time 2016-02-05_12:37:46 on domain   3:     .17874 elapsed seconds
Timing for main: time 2016-02-05_12:38:00 on domain   3:     .17823 elapsed seconds
Timing for main: time 2016-02-05_12:37:40 on domain   4:     .21661 elapsed seconds
Timing for main: time 2016-02-05_12:38:00 on domain   4:     .21294 elapsed seconds
Timing for main: time 2016-02-05_12:38:00 on domain   2:    1.66045 elapsed seconds
Timing for main: time 2016-02-05_12:38:00 on domain   1:    5.36580 elapsed seconds
Timing for main: time 2016-02-05_12:38:13 on domain   3:     .19142 elapsed seconds
Timing for main: time 2016-02-05_12:38:26 on domain   3:     .17923 elapsed seconds
Timing for main: time 2016-02-05_12:38:40 on domain   3:     .17832 elapsed seconds
Timing for main: time 2016-02-05_12:38:20 on domain   4:     .21620 elapsed seconds
Timing for main: time 2016-02-05_12:38:40 on domain   4:     .21302 elapsed seconds
Timing for main: time 2016-02-05_12:38:40 on domain   2:    1.66770 elapsed seconds
Timing for main: time 2016-02-05_12:38:53 on domain   3:     .19113 elapsed seconds
Timing for main: time 2016-02-05_12:39:06 on domain   3:     .18011 elapsed seconds
Timing for main: time 2016-02-05_12:39:20 on domain   3:     .17743 elapsed seconds
Timing for main: time 2016-02-05_12:39:00 on domain   4:     .21588 elapsed seconds
Timing for main: time 2016-02-05_12:39:20 on domain   4:     .21265 elapsed seconds
Timing for main: time 2016-02-05_12:39:20 on domain   2:    1.66181 elapsed seconds
Timing for main: time 2016-02-05_12:39:33 on domain   3:     .19116 elapsed seconds
Timing for main: time 2016-02-05_12:39:46 on domain   3:     .18136 elapsed seconds
Timing for main: time 2016-02-05_12:40:00 on domain   3:     .17929 elapsed seconds
Timing for main: time 2016-02-05_12:39:40 on domain   4:     .21596 elapsed seconds
Timing for main: time 2016-02-05_12:40:00 on domain   4:     .22231 elapsed seconds
Timing for main: time 2016-02-05_12:40:00 on domain   2:    1.67392 elapsed seconds
Timing for main: time 2016-02-05_12:40:00 on domain   1:    5.36332 elapsed seconds
Timing for main: time 2016-02-05_12:40:13 on domain   3:     .19159 elapsed seconds
Timing for main: time 2016-02-05_12:40:26 on domain   3:     .17888 elapsed seconds
Timing for main: time 2016-02-05_12:40:40 on domain   3:     .17859 elapsed seconds
Timing for main: time 2016-02-05_12:40:20 on domain   4:     .22538 elapsed seconds
Timing for main: time 2016-02-05_12:40:40 on domain   4:     .21264 elapsed seconds
Timing for main: time 2016-02-05_12:40:40 on domain   2:    1.68039 elapsed seconds
Timing for main: time 2016-02-05_12:40:53 on domain   3:     .19948 elapsed seconds
Timing for main: time 2016-02-05_12:41:06 on domain   3:     .18478 elapsed seconds
Timing for main: time 2016-02-05_12:41:20 on domain   3:     .17731 elapsed seconds
Timing for main: time 2016-02-05_12:41:00 on domain   4:     .21588 elapsed seconds
Timing for main: time 2016-02-05_12:41:20 on domain   4:     .21395 elapsed seconds
Timing for main: time 2016-02-05_12:41:20 on domain   2:    1.67503 elapsed seconds
Timing for main: time 2016-02-05_12:41:33 on domain   3:     .19109 elapsed seconds
Timing for main: time 2016-02-05_12:41:46 on domain   3:     .17849 elapsed seconds
Timing for main: time 2016-02-05_12:42:00 on domain   3:     .18065 elapsed seconds
Timing for main: time 2016-02-05_12:41:40 on domain   4:     .21602 elapsed seconds
Timing for main: time 2016-02-05_12:42:00 on domain   4:     .21304 elapsed seconds
Timing for main: time 2016-02-05_12:42:00 on domain   2:    1.66198 elapsed seconds
Timing for main: time 2016-02-05_12:42:00 on domain   1:    5.38297 elapsed seconds
Timing for main: time 2016-02-05_12:42:13 on domain   3:     .19154 elapsed seconds
Timing for main: time 2016-02-05_12:42:26 on domain   3:     .17858 elapsed seconds
Timing for main: time 2016-02-05_12:42:40 on domain   3:     .17839 elapsed seconds
Timing for main: time 2016-02-05_12:42:20 on domain   4:     .21647 elapsed seconds
Timing for main: time 2016-02-05_12:42:40 on domain   4:     .21233 elapsed seconds
Timing for main: time 2016-02-05_12:42:40 on domain   2:    1.67707 elapsed seconds
Timing for main: time 2016-02-05_12:42:53 on domain   3:     .19137 elapsed seconds
Timing for main: time 2016-02-05_12:43:06 on domain   3:     .17882 elapsed seconds
Timing for main: time 2016-02-05_12:43:20 on domain   3:     .18043 elapsed seconds
Timing for main: time 2016-02-05_12:43:00 on domain   4:     .21579 elapsed seconds
Timing for main: time 2016-02-05_12:43:20 on domain   4:     .21295 elapsed seconds
Timing for main: time 2016-02-05_12:43:20 on domain   2:    1.66277 elapsed seconds
Timing for main: time 2016-02-05_12:43:33 on domain   3:     .19138 elapsed seconds
Timing for main: time 2016-02-05_12:43:46 on domain   3:     .17832 elapsed seconds
Timing for main: time 2016-02-05_12:44:00 on domain   3:     .17847 elapsed seconds
Timing for main: time 2016-02-05_12:43:40 on domain   4:     .21511 elapsed seconds
Timing for main: time 2016-02-05_12:44:00 on domain   4:     .21447 elapsed seconds
Timing for main: time 2016-02-05_12:44:00 on domain   2:    1.66211 elapsed seconds
Timing for main: time 2016-02-05_12:44:00 on domain   1:    5.36176 elapsed seconds
Timing for main: time 2016-02-05_12:44:13 on domain   3:     .19272 elapsed seconds
Timing for main: time 2016-02-05_12:44:26 on domain   3:     .17873 elapsed seconds
Timing for main: time 2016-02-05_12:44:40 on domain   3:     .17840 elapsed seconds
Timing for main: time 2016-02-05_12:44:20 on domain   4:     .21603 elapsed seconds
Timing for main: time 2016-02-05_12:44:40 on domain   4:     .21320 elapsed seconds
Timing for main: time 2016-02-05_12:44:40 on domain   2:    1.66838 elapsed seconds
Timing for main: time 2016-02-05_12:44:53 on domain   3:     .19127 elapsed seconds
Timing for main: time 2016-02-05_12:45:06 on domain   3:     .17850 elapsed seconds
Timing for main: time 2016-02-05_12:45:20 on domain   3:     .17866 elapsed seconds
Timing for main: time 2016-02-05_12:45:00 on domain   4:     .22544 elapsed seconds
Timing for main: time 2016-02-05_12:45:20 on domain   4:     .21245 elapsed seconds
Timing for main: time 2016-02-05_12:45:20 on domain   2:    1.67123 elapsed seconds
Timing for main: time 2016-02-05_12:45:33 on domain   3:     .19131 elapsed seconds
Timing for main: time 2016-02-05_12:45:46 on domain   3:     .17841 elapsed seconds
Timing for main: time 2016-02-05_12:46:00 on domain   3:     .18789 elapsed seconds
Timing for main: time 2016-02-05_12:45:40 on domain   4:     .21614 elapsed seconds
Timing for main: time 2016-02-05_12:46:00 on domain   4:     .21321 elapsed seconds
Timing for main: time 2016-02-05_12:46:00 on domain   2:    1.67217 elapsed seconds
Timing for main: time 2016-02-05_12:46:00 on domain   1:    5.37111 elapsed seconds
Timing for main: time 2016-02-05_12:46:13 on domain   3:     .19112 elapsed seconds
Timing for main: time 2016-02-05_12:46:26 on domain   3:     .17845 elapsed seconds
Timing for main: time 2016-02-05_12:46:40 on domain   3:     .17874 elapsed seconds
Timing for main: time 2016-02-05_12:46:20 on domain   4:     .21612 elapsed seconds
Timing for main: time 2016-02-05_12:46:40 on domain   4:     .21289 elapsed seconds
Timing for main: time 2016-02-05_12:46:40 on domain   2:    1.66759 elapsed seconds
Timing for main: time 2016-02-05_12:46:53 on domain   3:     .19153 elapsed seconds
Timing for main: time 2016-02-05_12:47:06 on domain   3:     .17846 elapsed seconds
Timing for main: time 2016-02-05_12:47:20 on domain   3:     .17966 elapsed seconds
Timing for main: time 2016-02-05_12:47:00 on domain   4:     .21648 elapsed seconds
Timing for main: time 2016-02-05_12:47:20 on domain   4:     .21260 elapsed seconds
Timing for main: time 2016-02-05_12:47:20 on domain   2:    1.70307 elapsed seconds
Timing for main: time 2016-02-05_12:47:33 on domain   3:     .19158 elapsed seconds
Timing for main: time 2016-02-05_12:47:46 on domain   3:     .18586 elapsed seconds
Timing for main: time 2016-02-05_12:48:00 on domain   3:     .19138 elapsed seconds
Timing for main: time 2016-02-05_12:47:40 on domain   4:     .21611 elapsed seconds
Timing for main: time 2016-02-05_12:48:00 on domain   4:     .21286 elapsed seconds
Timing for main: time 2016-02-05_12:48:00 on domain   2:    1.69246 elapsed seconds
Timing for main: time 2016-02-05_12:48:00 on domain   1:    5.42941 elapsed seconds
Timing for main: time 2016-02-05_12:48:13 on domain   3:     .19136 elapsed seconds
Timing for main: time 2016-02-05_12:48:26 on domain   3:     .17831 elapsed seconds
Timing for main: time 2016-02-05_12:48:40 on domain   3:     .17894 elapsed seconds
Timing for main: time 2016-02-05_12:48:20 on domain   4:     .21598 elapsed seconds
Timing for main: time 2016-02-05_12:48:40 on domain   4:     .21326 elapsed seconds
Timing for main: time 2016-02-05_12:48:40 on domain   2:    1.67211 elapsed seconds
Timing for main: time 2016-02-05_12:48:53 on domain   3:     .19137 elapsed seconds
Timing for main: time 2016-02-05_12:49:06 on domain   3:     .17947 elapsed seconds
Timing for main: time 2016-02-05_12:49:20 on domain   3:     .18379 elapsed seconds
Timing for main: time 2016-02-05_12:49:00 on domain   4:     .21621 elapsed seconds
Timing for main: time 2016-02-05_12:49:20 on domain   4:     .21226 elapsed seconds
Timing for main: time 2016-02-05_12:49:20 on domain   2:    1.66789 elapsed seconds
Timing for main: time 2016-02-05_12:49:33 on domain   3:     .19116 elapsed seconds
Timing for main: time 2016-02-05_12:49:46 on domain   3:     .17870 elapsed seconds
Timing for main: time 2016-02-05_12:50:00 on domain   3:     .18076 elapsed seconds
Timing for main: time 2016-02-05_12:49:40 on domain   4:     .21708 elapsed seconds
Timing for main: time 2016-02-05_12:50:00 on domain   4:     .22167 elapsed seconds
Timing for main: time 2016-02-05_12:50:00 on domain   2:    1.67420 elapsed seconds
Timing for main: time 2016-02-05_12:50:00 on domain   1:    5.37433 elapsed seconds
Timing for main: time 2016-02-05_12:50:13 on domain   3:     .19163 elapsed seconds
Timing for main: time 2016-02-05_12:50:26 on domain   3:     .17852 elapsed seconds
Timing for main: time 2016-02-05_12:50:40 on domain   3:     .17958 elapsed seconds
Timing for main: time 2016-02-05_12:50:20 on domain   4:     .21642 elapsed seconds
Timing for main: time 2016-02-05_12:50:40 on domain   4:     .21240 elapsed seconds
Timing for main: time 2016-02-05_12:50:40 on domain   2:    1.74857 elapsed seconds
Timing for main: time 2016-02-05_12:50:53 on domain   3:     .19129 elapsed seconds
Timing for main: time 2016-02-05_12:51:06 on domain   3:     .18621 elapsed seconds
Timing for main: time 2016-02-05_12:51:20 on domain   3:     .17906 elapsed seconds
Timing for main: time 2016-02-05_12:51:00 on domain   4:     .21625 elapsed seconds
Timing for main: time 2016-02-05_12:51:20 on domain   4:     .21472 elapsed seconds
Timing for main: time 2016-02-05_12:51:20 on domain   2:    1.69044 elapsed seconds
Timing for main: time 2016-02-05_12:51:33 on domain   3:     .19108 elapsed seconds
Timing for main: time 2016-02-05_12:51:46 on domain   3:     .17878 elapsed seconds
Timing for main: time 2016-02-05_12:52:00 on domain   3:     .17883 elapsed seconds
Timing for main: time 2016-02-05_12:51:40 on domain   4:     .21631 elapsed seconds
Timing for main: time 2016-02-05_12:52:00 on domain   4:     .21386 elapsed seconds
Timing for main: time 2016-02-05_12:52:00 on domain   2:    1.66372 elapsed seconds
Timing for main: time 2016-02-05_12:52:00 on domain   1:    5.46246 elapsed seconds
Timing for main: time 2016-02-05_12:52:13 on domain   3:     .19134 elapsed seconds
Timing for main: time 2016-02-05_12:52:26 on domain   3:     .17826 elapsed seconds
Timing for main: time 2016-02-05_12:52:40 on domain   3:     .17909 elapsed seconds
Timing for main: time 2016-02-05_12:52:20 on domain   4:     .21643 elapsed seconds
Timing for main: time 2016-02-05_12:52:40 on domain   4:     .21273 elapsed seconds
Timing for main: time 2016-02-05_12:52:40 on domain   2:    1.67974 elapsed seconds
Timing for main: time 2016-02-05_12:52:53 on domain   3:     .19117 elapsed seconds
Timing for main: time 2016-02-05_12:53:06 on domain   3:     .17904 elapsed seconds
Timing for main: time 2016-02-05_12:53:20 on domain   3:     .17878 elapsed seconds
Timing for main: time 2016-02-05_12:53:00 on domain   4:     .21600 elapsed seconds
Timing for main: time 2016-02-05_12:53:20 on domain   4:     .21321 elapsed seconds
Timing for main: time 2016-02-05_12:53:20 on domain   2:    1.67279 elapsed seconds
Timing for main: time 2016-02-05_12:53:33 on domain   3:     .19109 elapsed seconds
Timing for main: time 2016-02-05_12:53:46 on domain   3:     .17874 elapsed seconds
Timing for main: time 2016-02-05_12:54:00 on domain   3:     .17896 elapsed seconds
Timing for main: time 2016-02-05_12:53:40 on domain   4:     .21648 elapsed seconds
Timing for main: time 2016-02-05_12:54:00 on domain   4:     .21263 elapsed seconds
Timing for main: time 2016-02-05_12:54:00 on domain   2:    1.66202 elapsed seconds
Timing for main: time 2016-02-05_12:54:00 on domain   1:    5.38011 elapsed seconds
Timing for main: time 2016-02-05_12:54:13 on domain   3:     .19140 elapsed seconds
Timing for main: time 2016-02-05_12:54:26 on domain   3:     .17852 elapsed seconds
Timing for main: time 2016-02-05_12:54:40 on domain   3:     .17865 elapsed seconds
Timing for main: time 2016-02-05_12:54:20 on domain   4:     .21634 elapsed seconds
Timing for main: time 2016-02-05_12:54:40 on domain   4:     .21211 elapsed seconds
Timing for main: time 2016-02-05_12:54:40 on domain   2:    1.66847 elapsed seconds
Timing for main: time 2016-02-05_12:54:53 on domain   3:     .19130 elapsed seconds
Timing for main: time 2016-02-05_12:55:06 on domain   3:     .17853 elapsed seconds
Timing for main: time 2016-02-05_12:55:20 on domain   3:     .18207 elapsed seconds
Timing for main: time 2016-02-05_12:55:00 on domain   4:     .22602 elapsed seconds
Timing for main: time 2016-02-05_12:55:20 on domain   4:     .21273 elapsed seconds
Timing for main: time 2016-02-05_12:55:20 on domain   2:    1.67467 elapsed seconds
Timing for main: time 2016-02-05_12:55:33 on domain   3:     .19061 elapsed seconds
Timing for main: time 2016-02-05_12:55:46 on domain   3:     .17913 elapsed seconds
Timing for main: time 2016-02-05_12:56:00 on domain   3:     .21437 elapsed seconds
Timing for main: time 2016-02-05_12:55:40 on domain   4:     .21588 elapsed seconds
Timing for main: time 2016-02-05_12:56:00 on domain   4:     .21271 elapsed seconds
Timing for main: time 2016-02-05_12:56:00 on domain   2:    1.78789 elapsed seconds
Timing for main: time 2016-02-05_12:56:00 on domain   1:    5.49065 elapsed seconds
Timing for main: time 2016-02-05_12:56:13 on domain   3:     .19943 elapsed seconds
Timing for main: time 2016-02-05_12:56:26 on domain   3:     .17869 elapsed seconds
Timing for main: time 2016-02-05_12:56:40 on domain   3:     .17937 elapsed seconds
Timing for main: time 2016-02-05_12:56:20 on domain   4:     .21696 elapsed seconds
Timing for main: time 2016-02-05_12:56:40 on domain   4:     .21226 elapsed seconds
Timing for main: time 2016-02-05_12:56:40 on domain   2:    1.67797 elapsed seconds
Timing for main: time 2016-02-05_12:56:53 on domain   3:     .19145 elapsed seconds
Timing for main: time 2016-02-05_12:57:06 on domain   3:     .17886 elapsed seconds
Timing for main: time 2016-02-05_12:57:20 on domain   3:     .18102 elapsed seconds
Timing for main: time 2016-02-05_12:57:00 on domain   4:     .21668 elapsed seconds
Timing for main: time 2016-02-05_12:57:20 on domain   4:     .21200 elapsed seconds
Timing for main: time 2016-02-05_12:57:20 on domain   2:    1.66407 elapsed seconds
Timing for main: time 2016-02-05_12:57:33 on domain   3:     .19168 elapsed seconds
Timing for main: time 2016-02-05_12:57:46 on domain   3:     .18096 elapsed seconds
Timing for main: time 2016-02-05_12:58:00 on domain   3:     .17711 elapsed seconds
Timing for main: time 2016-02-05_12:57:40 on domain   4:     .21742 elapsed seconds
Timing for main: time 2016-02-05_12:58:00 on domain   4:     .21321 elapsed seconds
Timing for main: time 2016-02-05_12:58:00 on domain   2:    1.66484 elapsed seconds
Timing for main: time 2016-02-05_12:58:00 on domain   1:    5.36615 elapsed seconds
  photolysis_driver: called for domain  1
Timing for main: time 2016-02-05_12:58:13 on domain   3:     .19131 elapsed seconds
Timing for main: time 2016-02-05_12:58:26 on domain   3:     .17861 elapsed seconds
Timing for main: time 2016-02-05_12:58:40 on domain   3:     .18684 elapsed seconds
Timing for main: time 2016-02-05_12:58:20 on domain   4:     .21642 elapsed seconds
Timing for main: time 2016-02-05_12:58:40 on domain   4:     .21296 elapsed seconds
Timing for main: time 2016-02-05_12:58:40 on domain   2:    1.68400 elapsed seconds
Timing for main: time 2016-02-05_12:58:53 on domain   3:     .19176 elapsed seconds
Timing for main: time 2016-02-05_12:59:06 on domain   3:     .18200 elapsed seconds
Timing for main: time 2016-02-05_12:59:20 on domain   3:     .18217 elapsed seconds
Timing for main: time 2016-02-05_12:59:00 on domain   4:     .21677 elapsed seconds
Timing for main: time 2016-02-05_12:59:20 on domain   4:     .21257 elapsed seconds
Timing for main: time 2016-02-05_12:59:20 on domain   2:    1.66752 elapsed seconds
  photolysis_driver: called for domain  2
Timing for main: time 2016-02-05_12:59:33 on domain   3:     .19155 elapsed seconds
Timing for main: time 2016-02-05_12:59:46 on domain   3:     .17888 elapsed seconds
  photolysis_driver: called for domain  3
Timing for main: time 2016-02-05_13:00:00 on domain   3:    1.04339 elapsed seconds
Timing for main: time 2016-02-05_12:59:40 on domain   4:     .21658 elapsed seconds
  photolysis_driver: called for domain  4
Timing for main: time 2016-02-05_13:00:00 on domain   4:    1.23648 elapsed seconds
Timing for main: time 2016-02-05_13:00:00 on domain   2:    4.64196 elapsed seconds
Timing for main: time 2016-02-05_13:00:00 on domain   1:    9.04370 elapsed seconds
Timing for Writing wrfout_d01_2016-02-05_13:00:00 for domain        1:    1.40421 elapsed seconds
  HOURLY EMISSIONS UPDATE TIME     3600.0        .0
 mediation_integrate: med_read_wrf_chem_emissions: Read emissions for time 2016-02-05_13:00:00
 **WARNING** Time in input file not being checked **WARNING**
Timing for Writing wrfout_d02_2016-02-05_13:00:00 for domain        2:    1.92003 elapsed seconds
Timing for Writing wrfout_d03_2016-02-05_13:00:00 for domain        3:    2.73669 elapsed seconds
Timing for main: time 2016-02-05_13:00:13 on domain   3:    3.13517 elapsed seconds
Timing for main: time 2016-02-05_13:00:26 on domain   3:     .21224 elapsed seconds
Timing for main: time 2016-02-05_13:00:40 on domain   3:     .20564 elapsed seconds
Timing for Writing wrfout_d04_2016-02-05_13:00:00 for domain        4:    1.86073 elapsed seconds
Timing for main: time 2016-02-05_13:00:20 on domain   4:    2.33471 elapsed seconds
Timing for main: time 2016-02-05_13:00:40 on domain   4:     .24196 elapsed seconds
Timing for main: time 2016-02-05_13:00:40 on domain   2:    9.00226 elapsed seconds
Timing for main: time 2016-02-05_13:00:53 on domain   3:     .19146 elapsed seconds
Timing for main: time 2016-02-05_13:01:06 on domain   3:     .17908 elapsed seconds
Timing for main: time 2016-02-05_13:01:20 on domain   3:     .18711 elapsed seconds
Timing for main: time 2016-02-05_13:01:00 on domain   4:     .21916 elapsed seconds
Timing for main: time 2016-02-05_13:01:20 on domain   4:     .21429 elapsed seconds
Timing for main: time 2016-02-05_13:01:20 on domain   2:    1.69100 elapsed seconds
Timing for main: time 2016-02-05_13:01:33 on domain   3:     .19172 elapsed seconds
Timing for main: time 2016-02-05_13:01:46 on domain   3:     .17869 elapsed seconds
Timing for main: time 2016-02-05_13:02:00 on domain   3:     .17880 elapsed seconds
Timing for main: time 2016-02-05_13:01:40 on domain   4:     .21668 elapsed seconds
Timing for main: time 2016-02-05_13:02:00 on domain   4:     .21274 elapsed seconds
Timing for main: time 2016-02-05_13:02:00 on domain   2:    1.66226 elapsed seconds
Timing for main: time 2016-02-05_13:02:00 on domain   1:   14.84346 elapsed seconds
Timing for main: time 2016-02-05_13:02:13 on domain   3:     .19130 elapsed seconds
Timing for main: time 2016-02-05_13:02:26 on domain   3:     .17936 elapsed seconds
Timing for main: time 2016-02-05_13:02:40 on domain   3:     .17984 elapsed seconds
Timing for main: time 2016-02-05_13:02:20 on domain   4:     .21674 elapsed seconds
Timing for main: time 2016-02-05_13:02:40 on domain   4:     .21241 elapsed seconds
Timing for main: time 2016-02-05_13:02:40 on domain   2:    1.66980 elapsed seconds
Timing for main: time 2016-02-05_13:02:53 on domain   3:     .19097 elapsed seconds
Timing for main: time 2016-02-05_13:03:06 on domain   3:     .17893 elapsed seconds
Timing for main: time 2016-02-05_13:03:20 on domain   3:     .17918 elapsed seconds
Timing for main: time 2016-02-05_13:03:00 on domain   4:     .21618 elapsed seconds
Timing for main: time 2016-02-05_13:03:20 on domain   4:     .21284 elapsed seconds
Timing for main: time 2016-02-05_13:03:20 on domain   2:    1.66248 elapsed seconds
Timing for main: time 2016-02-05_13:03:33 on domain   3:     .19112 elapsed seconds
Timing for main: time 2016-02-05_13:03:46 on domain   3:     .17905 elapsed seconds
Timing for main: time 2016-02-05_13:04:00 on domain   3:     .17923 elapsed seconds
Timing for main: time 2016-02-05_13:03:40 on domain   4:     .21617 elapsed seconds
Timing for main: time 2016-02-05_13:04:00 on domain   4:     .21220 elapsed seconds
Timing for main: time 2016-02-05_13:04:00 on domain   2:    1.67243 elapsed seconds
Timing for main: time 2016-02-05_13:04:00 on domain   1:    5.36392 elapsed seconds
Timing for main: time 2016-02-05_13:04:13 on domain   3:     .19119 elapsed seconds
Timing for main: time 2016-02-05_13:04:26 on domain   3:     .17878 elapsed seconds
Timing for main: time 2016-02-05_13:04:40 on domain   3:     .18003 elapsed seconds
Timing for main: time 2016-02-05_13:04:20 on domain   4:     .21826 elapsed seconds
Timing for main: time 2016-02-05_13:04:40 on domain   4:     .21220 elapsed seconds
Timing for main: time 2016-02-05_13:04:40 on domain   2:    1.67309 elapsed seconds
Timing for main: time 2016-02-05_13:04:53 on domain   3:     .19132 elapsed seconds
Timing for main: time 2016-02-05_13:05:06 on domain   3:     .18514 elapsed seconds
Timing for main: time 2016-02-05_13:05:20 on domain   3:     .20057 elapsed seconds
Timing for main: time 2016-02-05_13:05:00 on domain   4:     .25236 elapsed seconds
Timing for main: time 2016-02-05_13:05:20 on domain   4:     .26210 elapsed seconds
Timing for main: time 2016-02-05_13:05:20 on domain   2:    1.77956 elapsed seconds
Timing for main: time 2016-02-05_13:05:33 on domain   3:     .19209 elapsed seconds
Timing for main: time 2016-02-05_13:05:46 on domain   3:     .18022 elapsed seconds
Timing for main: time 2016-02-05_13:06:00 on domain   3:     .17954 elapsed seconds
Timing for main: time 2016-02-05_13:05:40 on domain   4:     .21671 elapsed seconds
Timing for main: time 2016-02-05_13:06:00 on domain   4:     .21186 elapsed seconds
Timing for main: time 2016-02-05_13:06:00 on domain   2:    1.66476 elapsed seconds
Timing for main: time 2016-02-05_13:06:00 on domain   1:    5.48283 elapsed seconds
Timing for main: time 2016-02-05_13:06:13 on domain   3:     .19128 elapsed seconds
Timing for main: time 2016-02-05_13:06:26 on domain   3:     .19411 elapsed seconds
Timing for main: time 2016-02-05_13:06:40 on domain   3:     .17717 elapsed seconds
Timing for main: time 2016-02-05_13:06:20 on domain   4:     .28075 elapsed seconds
Timing for main: time 2016-02-05_13:06:40 on domain   4:     .23632 elapsed seconds
Timing for main: time 2016-02-05_13:06:40 on domain   2:    1.76837 elapsed seconds
Timing for main: time 2016-02-05_13:06:53 on domain   3:     .19123 elapsed seconds
Timing for main: time 2016-02-05_13:07:06 on domain   3:     .18103 elapsed seconds
Timing for main: time 2016-02-05_13:07:20 on domain   3:     .17905 elapsed seconds
Timing for main: time 2016-02-05_13:07:00 on domain   4:     .21632 elapsed seconds
Timing for main: time 2016-02-05_13:07:20 on domain   4:     .21247 elapsed seconds
Timing for main: time 2016-02-05_13:07:20 on domain   2:    1.66299 elapsed seconds
Timing for main: time 2016-02-05_13:07:33 on domain   3:     .19344 elapsed seconds
Timing for main: time 2016-02-05_13:07:46 on domain   3:     .18080 elapsed seconds
Timing for main: time 2016-02-05_13:08:00 on domain   3:     .17914 elapsed seconds
Timing for main: time 2016-02-05_13:07:40 on domain   4:     .21645 elapsed seconds
Timing for main: time 2016-02-05_13:08:00 on domain   4:     .21222 elapsed seconds
Timing for main: time 2016-02-05_13:08:00 on domain   2:    1.66724 elapsed seconds
Timing for main: time 2016-02-05_13:08:00 on domain   1:    5.46055 elapsed seconds
Timing for main: time 2016-02-05_13:08:13 on domain   3:     .19122 elapsed seconds
Timing for main: time 2016-02-05_13:08:26 on domain   3:     .17904 elapsed seconds
Timing for main: time 2016-02-05_13:08:40 on domain   3:     .17999 elapsed seconds
Timing for main: time 2016-02-05_13:08:20 on domain   4:     .21926 elapsed seconds
Timing for main: time 2016-02-05_13:08:40 on domain   4:     .21534 elapsed seconds
Timing for main: time 2016-02-05_13:08:40 on domain   2:    1.68507 elapsed seconds
Timing for main: time 2016-02-05_13:08:53 on domain   3:     .19133 elapsed seconds
Timing for main: time 2016-02-05_13:09:06 on domain   3:     .17864 elapsed seconds
Timing for main: time 2016-02-05_13:09:20 on domain   3:     .18210 elapsed seconds
Timing for main: time 2016-02-05_13:09:00 on domain   4:     .21605 elapsed seconds
Timing for main: time 2016-02-05_13:09:20 on domain   4:     .21229 elapsed seconds
Timing for main: time 2016-02-05_13:09:20 on domain   2:    1.67413 elapsed seconds
Timing for main: time 2016-02-05_13:09:33 on domain   3:     .19136 elapsed seconds
Timing for main: time 2016-02-05_13:09:46 on domain   3:     .18271 elapsed seconds
Timing for main: time 2016-02-05_13:10:00 on domain   3:     .17911 elapsed seconds
Timing for main: time 2016-02-05_13:09:40 on domain   4:     .21404 elapsed seconds
Timing for main: time 2016-02-05_13:10:00 on domain   4:     .22144 elapsed seconds
Timing for main: time 2016-02-05_13:10:00 on domain   2:    1.67489 elapsed seconds
Timing for main: time 2016-02-05_13:10:00 on domain   1:    5.39373 elapsed seconds
Timing for main: time 2016-02-05_13:10:13 on domain   3:     .19172 elapsed seconds
Timing for main: time 2016-02-05_13:10:26 on domain   3:     .17896 elapsed seconds
Timing for main: time 2016-02-05_13:10:40 on domain   3:     .17942 elapsed seconds
Timing for main: time 2016-02-05_13:10:20 on domain   4:     .21670 elapsed seconds
Timing for main: time 2016-02-05_13:10:40 on domain   4:     .21282 elapsed seconds
Timing for main: time 2016-02-05_13:10:40 on domain   2:    1.67314 elapsed seconds
Timing for main: time 2016-02-05_13:10:53 on domain   3:     .19147 elapsed seconds
Timing for main: time 2016-02-05_13:11:06 on domain   3:     .17886 elapsed seconds
Timing for main: time 2016-02-05_13:11:20 on domain   3:     .17923 elapsed seconds
Timing for main: time 2016-02-05_13:11:00 on domain   4:     .21592 elapsed seconds
Timing for main: time 2016-02-05_13:11:20 on domain   4:     .21280 elapsed seconds
Timing for main: time 2016-02-05_13:11:20 on domain   2:    1.66402 elapsed seconds
Timing for main: time 2016-02-05_13:11:33 on domain   3:     .19924 elapsed seconds
Timing for main: time 2016-02-05_13:11:46 on domain   3:     .17921 elapsed seconds
Timing for main: time 2016-02-05_13:12:00 on domain   3:     .17946 elapsed seconds
Timing for main: time 2016-02-05_13:11:40 on domain   4:     .25868 elapsed seconds
Timing for main: time 2016-02-05_13:12:00 on domain   4:     .24086 elapsed seconds
Timing for main: time 2016-02-05_13:12:00 on domain   2:    1.74208 elapsed seconds
Timing for main: time 2016-02-05_13:12:00 on domain   1:    5.44478 elapsed seconds
Timing for main: time 2016-02-05_13:12:13 on domain   3:     .21318 elapsed seconds
Timing for main: time 2016-02-05_13:12:26 on domain   3:     .17640 elapsed seconds
Timing for main: time 2016-02-05_13:12:40 on domain   3:     .17917 elapsed seconds
Timing for main: time 2016-02-05_13:12:20 on domain   4:     .21616 elapsed seconds
Timing for main: time 2016-02-05_13:12:40 on domain   4:     .21268 elapsed seconds
Timing for main: time 2016-02-05_13:12:40 on domain   2:    1.73116 elapsed seconds
Timing for main: time 2016-02-05_13:12:53 on domain   3:     .19141 elapsed seconds
Timing for main: time 2016-02-05_13:13:06 on domain   3:     .18170 elapsed seconds
Timing for main: time 2016-02-05_13:13:20 on domain   3:     .18110 elapsed seconds
Timing for main: time 2016-02-05_13:13:00 on domain   4:     .21574 elapsed seconds
Timing for main: time 2016-02-05_13:13:20 on domain   4:     .21260 elapsed seconds
Timing for main: time 2016-02-05_13:13:20 on domain   2:    1.66483 elapsed seconds
Timing for main: time 2016-02-05_13:13:33 on domain   3:     .19121 elapsed seconds
Timing for main: time 2016-02-05_13:13:46 on domain   3:     .17917 elapsed seconds
Timing for main: time 2016-02-05_13:14:00 on domain   3:     .17822 elapsed seconds
Timing for main: time 2016-02-05_13:13:40 on domain   4:     .21631 elapsed seconds
Timing for main: time 2016-02-05_13:14:00 on domain   4:     .21221 elapsed seconds
Timing for main: time 2016-02-05_13:14:00 on domain   2:    1.66209 elapsed seconds
Timing for main: time 2016-02-05_13:14:00 on domain   1:    5.42805 elapsed seconds
Timing for main: time 2016-02-05_13:14:13 on domain   3:     .19142 elapsed seconds
Timing for main: time 2016-02-05_13:14:26 on domain   3:     .18136 elapsed seconds
Timing for main: time 2016-02-05_13:14:40 on domain   3:     .17879 elapsed seconds
Timing for main: time 2016-02-05_13:14:20 on domain   4:     .21623 elapsed seconds
Timing for main: time 2016-02-05_13:14:40 on domain   4:     .21211 elapsed seconds
Timing for main: time 2016-02-05_13:14:40 on domain   2:    1.68357 elapsed seconds
Timing for main: time 2016-02-05_13:14:53 on domain   3:     .19362 elapsed seconds
Timing for main: time 2016-02-05_13:15:06 on domain   3:     .17710 elapsed seconds
Timing for main: time 2016-02-05_13:15:20 on domain   3:     .17911 elapsed seconds
Timing for main: time 2016-02-05_13:15:00 on domain   4:     .22607 elapsed seconds
Timing for main: time 2016-02-05_13:15:20 on domain   4:     .21242 elapsed seconds
Timing for main: time 2016-02-05_13:15:20 on domain   2:    1.67307 elapsed seconds
Timing for main: time 2016-02-05_13:15:33 on domain   3:     .19139 elapsed seconds
Timing for main: time 2016-02-05_13:15:46 on domain   3:     .17952 elapsed seconds
Timing for main: time 2016-02-05_13:16:00 on domain   3:     .18097 elapsed seconds
Timing for main: time 2016-02-05_13:15:40 on domain   4:     .21643 elapsed seconds
Timing for main: time 2016-02-05_13:16:00 on domain   4:     .21186 elapsed seconds
Timing for main: time 2016-02-05_13:16:00 on domain   2:    1.66509 elapsed seconds
Timing for main: time 2016-02-05_13:16:00 on domain   1:    5.38141 elapsed seconds
Timing for main: time 2016-02-05_13:16:13 on domain   3:     .19490 elapsed seconds
Timing for main: time 2016-02-05_13:16:26 on domain   3:     .17905 elapsed seconds
Timing for main: time 2016-02-05_13:16:40 on domain   3:     .18807 elapsed seconds
Timing for main: time 2016-02-05_13:16:20 on domain   4:     .21630 elapsed seconds
Timing for main: time 2016-02-05_13:16:40 on domain   4:     .21288 elapsed seconds
Timing for main: time 2016-02-05_13:16:40 on domain   2:    1.68280 elapsed seconds
Timing for main: time 2016-02-05_13:16:53 on domain   3:     .19121 elapsed seconds
Timing for main: time 2016-02-05_13:17:06 on domain   3:     .17916 elapsed seconds
Timing for main: time 2016-02-05_13:17:20 on domain   3:     .17946 elapsed seconds
Timing for main: time 2016-02-05_13:17:00 on domain   4:     .21395 elapsed seconds
Timing for main: time 2016-02-05_13:17:20 on domain   4:     .21217 elapsed seconds
Timing for main: time 2016-02-05_13:17:20 on domain   2:    1.66284 elapsed seconds
[...]
Timing for main: time 2016-02-06_17:36:00 on domain   2:    1.68348 elapsed seconds
Timing for main: time 2016-02-06_17:36:00 on domain   1:    5.40728 elapsed seconds
Timing for main: time 2016-02-06_17:36:13 on domain   3:     .19614 elapsed seconds
Timing for main: time 2016-02-06_17:36:26 on domain   3:     .18397 elapsed seconds
Timing for main: time 2016-02-06_17:36:40 on domain   3:     .18179 elapsed seconds
Timing for main: time 2016-02-06_17:36:20 on domain   4:     .24909 elapsed seconds
Timing for main: time 2016-02-06_17:36:40 on domain   4:     .24728 elapsed seconds
Timing for main: time 2016-02-06_17:36:40 on domain   2:    1.74875 elapsed seconds
Timing for main: time 2016-02-06_17:36:53 on domain   3:     .19655 elapsed seconds
Timing for main: time 2016-02-06_17:37:06 on domain   3:     .18185 elapsed seconds
Timing for main: time 2016-02-06_17:37:20 on domain   3:     .18240 elapsed seconds
Timing for main: time 2016-02-06_17:37:00 on domain   4:     .21713 elapsed seconds
Timing for main: time 2016-02-06_17:37:20 on domain   4:     .21178 elapsed seconds
Timing for main: time 2016-02-06_17:37:20 on domain   2:    1.67193 elapsed seconds
Timing for main: time 2016-02-06_17:37:33 on domain   3:     .19622 elapsed seconds
Timing for main: time 2016-02-06_17:37:46 on domain   3:     .18196 elapsed seconds
Timing for main: time 2016-02-06_17:38:00 on domain   3:     .18308 elapsed seconds
Timing for main: time 2016-02-06_17:37:40 on domain   4:     .21683 elapsed seconds
Timing for main: time 2016-02-06_17:38:00 on domain   4:     .21272 elapsed seconds
Timing for main: time 2016-02-06_17:38:00 on domain   2:    1.67239 elapsed seconds
Timing for main: time 2016-02-06_17:38:00 on domain   1:    5.45074 elapsed seconds
Timing for main: time 2016-02-06_17:38:13 on domain   3:     .19653 elapsed seconds
Timing for main: time 2016-02-06_17:38:26 on domain   3:     .18186 elapsed seconds
Timing for main: time 2016-02-06_17:38:40 on domain   3:     .19022 elapsed seconds
Timing for main: time 2016-02-06_17:38:20 on domain   4:     .21659 elapsed seconds
Timing for main: time 2016-02-06_17:38:40 on domain   4:     .21202 elapsed seconds
Timing for main: time 2016-02-06_17:38:40 on domain   2:    1.68700 elapsed seconds
Timing for main: time 2016-02-06_17:38:53 on domain   3:     .19631 elapsed seconds
Timing for main: time 2016-02-06_17:39:06 on domain   3:     .18201 elapsed seconds
Timing for main: time 2016-02-06_17:39:20 on domain   3:     .18222 elapsed seconds
Timing for main: time 2016-02-06_17:39:00 on domain   4:     .21687 elapsed seconds
Timing for main: time 2016-02-06_17:39:20 on domain   4:     .21107 elapsed seconds
Timing for main: time 2016-02-06_17:39:20 on domain   2:    1.67153 elapsed seconds
Timing for main: time 2016-02-06_17:39:33 on domain   3:     .19636 elapsed seconds
Timing for main: time 2016-02-06_17:39:46 on domain   3:     .18196 elapsed seconds
Timing for main: time 2016-02-06_17:40:00 on domain   3:     .18477 elapsed seconds
Timing for main: time 2016-02-06_17:39:40 on domain   4:     .21703 elapsed seconds
Timing for main: time 2016-02-06_17:40:00 on domain   4:     .22082 elapsed seconds
Timing for main: time 2016-02-06_17:40:00 on domain   2:    1.68333 elapsed seconds
Timing for main: time 2016-02-06_17:40:00 on domain   1:    5.39954 elapsed seconds
Timing for main: time 2016-02-06_17:40:13 on domain   3:     .19695 elapsed seconds
Timing for main: time 2016-02-06_17:40:26 on domain   3:     .18206 elapsed seconds
Timing for main: time 2016-02-06_17:40:40 on domain   3:     .18389 elapsed seconds
Timing for main: time 2016-02-06_17:40:20 on domain   4:     .21637 elapsed seconds
Timing for main: time 2016-02-06_17:40:40 on domain   4:     .21126 elapsed seconds
Timing for main: time 2016-02-06_17:40:40 on domain   2:    1.68104 elapsed seconds
Timing for main: time 2016-02-06_17:40:53 on domain   3:     .19586 elapsed seconds
Timing for main: time 2016-02-06_17:41:06 on domain   3:     .18242 elapsed seconds
Timing for main: time 2016-02-06_17:41:20 on domain   3:     .18313 elapsed seconds
Timing for main: time 2016-02-06_17:41:00 on domain   4:     .21710 elapsed seconds
Timing for main: time 2016-02-06_17:41:20 on domain   4:     .21371 elapsed seconds
Timing for main: time 2016-02-06_17:41:20 on domain   2:    1.68475 elapsed seconds
Timing for main: time 2016-02-06_17:41:33 on domain   3:     .19745 elapsed seconds
Timing for main: time 2016-02-06_17:41:46 on domain   3:     .18436 elapsed seconds
Timing for main: time 2016-02-06_17:42:00 on domain   3:     .18251 elapsed seconds
Timing for main: time 2016-02-06_17:41:40 on domain   4:     .21693 elapsed seconds
Timing for main: time 2016-02-06_17:42:00 on domain   4:     .21632 elapsed seconds
Timing for main: time 2016-02-06_17:42:00 on domain   2:    1.67951 elapsed seconds
Timing for main: time 2016-02-06_17:42:00 on domain   1:    5.41162 elapsed seconds
Timing for main: time 2016-02-06_17:42:13 on domain   3:     .19633 elapsed seconds
Timing for main: time 2016-02-06_17:42:26 on domain   3:     .18224 elapsed seconds
Timing for main: time 2016-02-06_17:42:40 on domain   3:     .18250 elapsed seconds
Timing for main: time 2016-02-06_17:42:20 on domain   4:     .21660 elapsed seconds
Timing for main: time 2016-02-06_17:42:40 on domain   4:     .21231 elapsed seconds
Timing for main: time 2016-02-06_17:42:40 on domain   2:    1.68105 elapsed seconds
Timing for main: time 2016-02-06_17:42:53 on domain   3:     .19641 elapsed seconds
Timing for main: time 2016-02-06_17:43:06 on domain   3:     .18219 elapsed seconds
Timing for main: time 2016-02-06_17:43:20 on domain   3:     .18485 elapsed seconds
Timing for main: time 2016-02-06_17:43:00 on domain   4:     .21762 elapsed seconds
Timing for main: time 2016-02-06_17:43:20 on domain   4:     .21118 elapsed seconds
Timing for main: time 2016-02-06_17:43:20 on domain   2:    1.67485 elapsed seconds
Timing for main: time 2016-02-06_17:43:33 on domain   3:     .19633 elapsed seconds
Timing for main: time 2016-02-06_17:43:46 on domain   3:     .19010 elapsed seconds
Timing for main: time 2016-02-06_17:44:00 on domain   3:     .18238 elapsed seconds
Timing for main: time 2016-02-06_17:43:40 on domain   4:     .21689 elapsed seconds
Timing for main: time 2016-02-06_17:44:00 on domain   4:     .21140 elapsed seconds
Timing for main: time 2016-02-06_17:44:00 on domain   2:    1.68172 elapsed seconds
Timing for main: time 2016-02-06_17:44:00 on domain   1:    5.39520 elapsed seconds
Timing for main: time 2016-02-06_17:44:13 on domain   3:     .19626 elapsed seconds
Timing for main: time 2016-02-06_17:44:26 on domain   3:     .18202 elapsed seconds
Timing for main: time 2016-02-06_17:44:40 on domain   3:     .18260 elapsed seconds
Timing for main: time 2016-02-06_17:44:20 on domain   4:     .21662 elapsed seconds
Timing for main: time 2016-02-06_17:44:40 on domain   4:     .21198 elapsed seconds
Timing for main: time 2016-02-06_17:44:40 on domain   2:    1.67931 elapsed seconds
Timing for main: time 2016-02-06_17:44:53 on domain   3:     .19670 elapsed seconds
Timing for main: time 2016-02-06_17:45:06 on domain   3:     .18209 elapsed seconds
Timing for main: time 2016-02-06_17:45:20 on domain   3:     .18266 elapsed seconds
Timing for main: time 2016-02-06_17:45:00 on domain   4:     .22648 elapsed seconds
Timing for main: time 2016-02-06_17:45:20 on domain   4:     .21254 elapsed seconds
Timing for main: time 2016-02-06_17:45:20 on domain   2:    1.68256 elapsed seconds
Timing for main: time 2016-02-06_17:45:33 on domain   3:     .19623 elapsed seconds
Timing for main: time 2016-02-06_17:45:46 on domain   3:     .18223 elapsed seconds
Timing for main: time 2016-02-06_17:46:00 on domain   3:     .18241 elapsed seconds
Timing for main: time 2016-02-06_17:45:40 on domain   4:     .21647 elapsed seconds
Timing for main: time 2016-02-06_17:46:00 on domain   4:     .21118 elapsed seconds
Timing for main: time 2016-02-06_17:46:00 on domain   2:    1.67028 elapsed seconds
Timing for main: time 2016-02-06_17:46:00 on domain   1:    5.38941 elapsed seconds
Timing for main: time 2016-02-06_17:46:13 on domain   3:     .19638 elapsed seconds
Timing for main: time 2016-02-06_17:46:26 on domain   3:     .18302 elapsed seconds
Timing for main: time 2016-02-06_17:46:40 on domain   3:     .18307 elapsed seconds
Timing for main: time 2016-02-06_17:46:20 on domain   4:     .21651 elapsed seconds
Timing for main: time 2016-02-06_17:46:40 on domain   4:     .21094 elapsed seconds
Timing for main: time 2016-02-06_17:46:40 on domain   2:    1.69049 elapsed seconds
Timing for main: time 2016-02-06_17:46:53 on domain   3:     .19800 elapsed seconds
Timing for main: time 2016-02-06_17:47:06 on domain   3:     .18219 elapsed seconds
Timing for main: time 2016-02-06_17:47:20 on domain   3:     .18781 elapsed seconds
Timing for main: time 2016-02-06_17:47:00 on domain   4:     .21654 elapsed seconds
Timing for main: time 2016-02-06_17:47:20 on domain   4:     .21100 elapsed seconds
Timing for main: time 2016-02-06_17:47:20 on domain   2:    1.68153 elapsed seconds
Timing for main: time 2016-02-06_17:47:33 on domain   3:     .19672 elapsed seconds
Timing for main: time 2016-02-06_17:47:46 on domain   3:     .18201 elapsed seconds
Timing for main: time 2016-02-06_17:48:00 on domain   3:     .18232 elapsed seconds
Timing for main: time 2016-02-06_17:47:40 on domain   4:     .21728 elapsed seconds
Timing for main: time 2016-02-06_17:48:00 on domain   4:     .21080 elapsed seconds
Timing for main: time 2016-02-06_17:48:00 on domain   2:    1.67199 elapsed seconds
Timing for main: time 2016-02-06_17:48:00 on domain   1:    5.42186 elapsed seconds
Timing for main: time 2016-02-06_17:48:13 on domain   3:     .19654 elapsed seconds
Timing for main: time 2016-02-06_17:48:26 on domain   3:     .18384 elapsed seconds
Timing for main: time 2016-02-06_17:48:40 on domain   3:     .18302 elapsed seconds
Timing for main: time 2016-02-06_17:48:20 on domain   4:     .21689 elapsed seconds
Timing for main: time 2016-02-06_17:48:40 on domain   4:     .21174 elapsed seconds
Timing for main: time 2016-02-06_17:48:40 on domain   2:    1.68213 elapsed seconds
Timing for main: time 2016-02-06_17:48:53 on domain   3:     .20414 elapsed seconds
Timing for main: time 2016-02-06_17:49:06 on domain   3:     .18197 elapsed seconds
Timing for main: time 2016-02-06_17:49:20 on domain   3:     .18398 elapsed seconds
Timing for main: time 2016-02-06_17:49:00 on domain   4:     .21615 elapsed seconds
Timing for main: time 2016-02-06_17:49:20 on domain   4:     .21168 elapsed seconds
Timing for main: time 2016-02-06_17:49:20 on domain   2:    1.68046 elapsed seconds
Timing for main: time 2016-02-06_17:49:33 on domain   3:     .19646 elapsed seconds
Timing for main: time 2016-02-06_17:49:46 on domain   3:     .18321 elapsed seconds
Timing for main: time 2016-02-06_17:50:00 on domain   3:     .18329 elapsed seconds
Timing for main: time 2016-02-06_17:49:40 on domain   4:     .21669 elapsed seconds
Timing for main: time 2016-02-06_17:50:00 on domain   4:     .22066 elapsed seconds
Timing for main: time 2016-02-06_17:50:00 on domain   2:    1.68320 elapsed seconds
Timing for main: time 2016-02-06_17:50:00 on domain   1:    5.40318 elapsed seconds
Timing for main: time 2016-02-06_17:50:13 on domain   3:     .19740 elapsed seconds
Timing for main: time 2016-02-06_17:50:26 on domain   3:     .18210 elapsed seconds
Timing for main: time 2016-02-06_17:50:40 on domain   3:     .18490 elapsed seconds
Timing for main: time 2016-02-06_17:50:20 on domain   4:     .21615 elapsed seconds
Timing for main: time 2016-02-06_17:50:40 on domain   4:     .21115 elapsed seconds
Timing for main: time 2016-02-06_17:50:40 on domain   2:    1.68180 elapsed seconds
Timing for main: time 2016-02-06_17:50:53 on domain   3:     .19633 elapsed seconds
Timing for main: time 2016-02-06_17:51:06 on domain   3:     .18203 elapsed seconds
Timing for main: time 2016-02-06_17:51:20 on domain   3:     .18223 elapsed seconds
Timing for main: time 2016-02-06_17:51:00 on domain   4:     .21730 elapsed seconds
Timing for main: time 2016-02-06_17:51:20 on domain   4:     .21088 elapsed seconds
Timing for main: time 2016-02-06_17:51:20 on domain   2:    1.67128 elapsed seconds
Timing for main: time 2016-02-06_17:51:33 on domain   3:     .19644 elapsed seconds
Timing for main: time 2016-02-06_17:51:46 on domain   3:     .18183 elapsed seconds
Timing for main: time 2016-02-06_17:52:00 on domain   3:     .18256 elapsed seconds
Timing for main: time 2016-02-06_17:51:40 on domain   4:     .21622 elapsed seconds
Timing for main: time 2016-02-06_17:52:00 on domain   4:     .21132 elapsed seconds
Timing for main: time 2016-02-06_17:52:00 on domain   2:    1.68115 elapsed seconds
Timing for main: time 2016-02-06_17:52:00 on domain   1:    5.39343 elapsed seconds
Timing for main: time 2016-02-06_17:52:13 on domain   3:     .19632 elapsed seconds
Timing for main: time 2016-02-06_17:52:26 on domain   3:     .18539 elapsed seconds
Timing for main: time 2016-02-06_17:52:40 on domain   3:     .18274 elapsed seconds
Timing for main: time 2016-02-06_17:52:20 on domain   4:     .21650 elapsed seconds
Timing for main: time 2016-02-06_17:52:40 on domain   4:     .21140 elapsed seconds
Timing for main: time 2016-02-06_17:52:40 on domain   2:    1.68360 elapsed seconds
Timing for main: time 2016-02-06_17:52:53 on domain   3:     .19737 elapsed seconds
Timing for main: time 2016-02-06_17:53:06 on domain   3:     .18137 elapsed seconds
Timing for main: time 2016-02-06_17:53:20 on domain   3:     .18889 elapsed seconds
Timing for main: time 2016-02-06_17:53:00 on domain   4:     .23584 elapsed seconds
Timing for main: time 2016-02-06_17:53:20 on domain   4:     .28292 elapsed seconds
Timing for main: time 2016-02-06_17:53:20 on domain   2:    1.76865 elapsed seconds
Timing for main: time 2016-02-06_17:53:33 on domain   3:     .19730 elapsed seconds
Timing for main: time 2016-02-06_17:53:46 on domain   3:     .18208 elapsed seconds
Timing for main: time 2016-02-06_17:54:00 on domain   3:     .19437 elapsed seconds
Timing for main: time 2016-02-06_17:53:40 on domain   4:     .21859 elapsed seconds
Timing for main: time 2016-02-06_17:54:00 on domain   4:     .21082 elapsed seconds
Timing for main: time 2016-02-06_17:54:00 on domain   2:    1.68591 elapsed seconds
Timing for main: time 2016-02-06_17:54:00 on domain   1:    5.50211 elapsed seconds
Timing for main: time 2016-02-06_17:54:13 on domain   3:     .19677 elapsed seconds
Timing for main: time 2016-02-06_17:54:26 on domain   3:     .18329 elapsed seconds
Timing for main: time 2016-02-06_17:54:40 on domain   3:     .18236 elapsed seconds
Timing for main: time 2016-02-06_17:54:20 on domain   4:     .21671 elapsed seconds
Timing for main: time 2016-02-06_17:54:40 on domain   4:     .21151 elapsed seconds
Timing for main: time 2016-02-06_17:54:40 on domain   2:    1.68356 elapsed seconds
Timing for main: time 2016-02-06_17:54:53 on domain   3:     .19637 elapsed seconds
Timing for main: time 2016-02-06_17:55:06 on domain   3:     .18183 elapsed seconds
Timing for main: time 2016-02-06_17:55:20 on domain   3:     .18232 elapsed seconds
Timing for main: time 2016-02-06_17:55:00 on domain   4:     .22701 elapsed seconds
Timing for main: time 2016-02-06_17:55:20 on domain   4:     .21123 elapsed seconds
Timing for main: time 2016-02-06_17:55:20 on domain   2:    1.68129 elapsed seconds
Timing for main: time 2016-02-06_17:55:33 on domain   3:     .19615 elapsed seconds
Timing for main: time 2016-02-06_17:55:46 on domain   3:     .18230 elapsed seconds
Timing for main: time 2016-02-06_17:56:00 on domain   3:     .18244 elapsed seconds
Timing for main: time 2016-02-06_17:55:40 on domain   4:     .21665 elapsed seconds
Timing for main: time 2016-02-06_17:56:00 on domain   4:     .21194 elapsed seconds
Timing for main: time 2016-02-06_17:56:00 on domain   2:    1.67226 elapsed seconds
Timing for main: time 2016-02-06_17:56:00 on domain   1:    5.39415 elapsed seconds
Timing for main: time 2016-02-06_17:56:13 on domain   3:     .19661 elapsed seconds
Timing for main: time 2016-02-06_17:56:26 on domain   3:     .18426 elapsed seconds
Timing for main: time 2016-02-06_17:56:40 on domain   3:     .18240 elapsed seconds
Timing for main: time 2016-02-06_17:56:20 on domain   4:     .21720 elapsed seconds
Timing for main: time 2016-02-06_17:56:40 on domain   4:     .21045 elapsed seconds
Timing for main: time 2016-02-06_17:56:40 on domain   2:    1.70839 elapsed seconds
Timing for main: time 2016-02-06_17:56:53 on domain   3:     .19675 elapsed seconds
Timing for main: time 2016-02-06_17:57:06 on domain   3:     .18204 elapsed seconds
Timing for main: time 2016-02-06_17:57:20 on domain   3:     .19604 elapsed seconds
Timing for main: time 2016-02-06_17:57:00 on domain   4:     .21699 elapsed seconds
Timing for main: time 2016-02-06_17:57:20 on domain   4:     .21114 elapsed seconds
Timing for main: time 2016-02-06_17:57:20 on domain   2:    1.69857 elapsed seconds
Timing for main: time 2016-02-06_17:57:33 on domain   3:     .19632 elapsed seconds
Timing for main: time 2016-02-06_17:57:46 on domain   3:     .18263 elapsed seconds
Timing for main: time 2016-02-06_17:58:00 on domain   3:     .18372 elapsed seconds
Timing for main: time 2016-02-06_17:57:40 on domain   4:     .21673 elapsed seconds
Timing for main: time 2016-02-06_17:58:00 on domain   4:     .21161 elapsed seconds
Timing for main: time 2016-02-06_17:58:00 on domain   2:    1.67380 elapsed seconds
Timing for main: time 2016-02-06_17:58:00 on domain   1:    5.43738 elapsed seconds
  photolysis_driver: called for domain  1
Timing for main: time 2016-02-06_17:58:13 on domain   3:     .19794 elapsed seconds
Timing for main: time 2016-02-06_17:58:26 on domain   3:     .18063 elapsed seconds
Timing for main: time 2016-02-06_17:58:40 on domain   3:     .18224 elapsed seconds
Timing for main: time 2016-02-06_17:58:20 on domain   4:     .21693 elapsed seconds
Timing for main: time 2016-02-06_17:58:40 on domain   4:     .21112 elapsed seconds
Timing for main: time 2016-02-06_17:58:40 on domain   2:    1.68021 elapsed seconds
Timing for main: time 2016-02-06_17:58:53 on domain   3:     .19588 elapsed seconds
Timing for main: time 2016-02-06_17:59:06 on domain   3:     .19003 elapsed seconds
Timing for main: time 2016-02-06_17:59:20 on domain   3:     .18282 elapsed seconds
Timing for main: time 2016-02-06_17:59:00 on domain   4:     .21698 elapsed seconds
Timing for main: time 2016-02-06_17:59:20 on domain   4:     .21221 elapsed seconds
Timing for main: time 2016-02-06_17:59:20 on domain   2:    1.68115 elapsed seconds
  photolysis_driver: called for domain  2
Timing for main: time 2016-02-06_17:59:33 on domain   3:     .19665 elapsed seconds
Timing for main: time 2016-02-06_17:59:46 on domain   3:     .18194 elapsed seconds
  photolysis_driver: called for domain  3
Timing for main: time 2016-02-06_18:00:00 on domain   3:    1.04440 elapsed seconds
Timing for Writing wrfout_d03_2016-02-06_18:00:00 for domain        3:    1.71228 elapsed seconds
Timing for main: time 2016-02-06_17:59:40 on domain   4:     .29640 elapsed seconds
  photolysis_driver: called for domain  4
Timing for main: time 2016-02-06_18:00:00 on domain   4:    1.28450 elapsed seconds
Timing for Writing wrfout_d04_2016-02-06_18:00:00 for domain        4:    1.97126 elapsed seconds
Timing for main: time 2016-02-06_18:00:00 on domain   2:    8.45959 elapsed seconds
Timing for Writing wrfout_d02_2016-02-06_18:00:00 for domain        2:    2.82174 elapsed seconds
Timing for main: time 2016-02-06_18:00:00 on domain   1:   15.60538 elapsed seconds
Timing for Writing wrfout_d01_2016-02-06_18:00:00 for domain        1:    2.48096 elapsed seconds
 d01 2016-02-06_18:00:00 wrf: SUCCESS COMPLETE WRF
