taskid: 0 hostname: p10a51.pbm.ihost.com
  Ntasks in X  16 , ntasks in Y  25
 Setting blank km_opt entries to domain #1 values.
  --> The km_opt entry in the namelist.input is now max_domains.
 Setting blank diff_opt entries to domain #1 values.
  --> The diff_opt entry in the namelist.input is now max_domains.
 --- WARNING: traj_opt is zero, but num_traj is not zero; setting num_traj to zero.
 --- NOTE: hypsometric_opt is 2, setting adjust_heights = F
 --- NOTE: sst_update is 0, setting io_form_auxinput4 = 0 and auxinput4_interval = 0 for all domains
 --- NOTE: sst_update is 0, setting io_form_auxinput4 = 0 and auxinput4_interval = 0 for all domains
 --- NOTE: sst_update is 0, setting io_form_auxinput4 = 0 and auxinput4_interval = 0 for all domains
 --- NOTE: sst_update is 0, setting io_form_auxinput4 = 0 and auxinput4_interval = 0 for all domains
 --- NOTE: grid_fdda is 0 for domain      1, setting gfdda interval and ending time to 0 for that domain.
 --- NOTE: both grid_sfdda and pxlsm_soil_nudge are 0 for domain      1, setting sgfdda interval and ending time to 0 for that domain.
 --- NOTE: obs_nudge_opt is 0 for domain      1, setting obs nudging interval and ending time to 0 for that domain.
 --- NOTE: grid_fdda is 0 for domain      2, setting gfdda interval and ending time to 0 for that domain.
 --- NOTE: both grid_sfdda and pxlsm_soil_nudge are 0 for domain      2, setting sgfdda interval and ending time to 0 for that domain.
 --- NOTE: obs_nudge_opt is 0 for domain      2, setting obs nudging interval and ending time to 0 for that domain.
 --- NOTE: grid_fdda is 0 for domain      3, setting gfdda interval and ending time to 0 for that domain.
 --- NOTE: both grid_sfdda and pxlsm_soil_nudge are 0 for domain      3, setting sgfdda interval and ending time to 0 for that domain.
 --- NOTE: obs_nudge_opt is 0 for domain      3, setting obs nudging interval and ending time to 0 for that domain.
 --- NOTE: grid_fdda is 0 for domain      4, setting gfdda interval and ending time to 0 for that domain.
 --- NOTE: both grid_sfdda and pxlsm_soil_nudge are 0 for domain      4, setting sgfdda interval and ending time to 0 for that domain.
 --- NOTE: obs_nudge_opt is 0 for domain      4, setting obs nudging interval and ending time to 0 for that domain.
 bl_pbl_physics /= 4, implies mfshconv must be 0, resetting
 --- NOTE: num_soil_layers has been set to      4
 WRF V3.6 MODEL
  *************************************
  Parent domain
  ids,ide,jds,jde  1 271 1 181
  ims,ime,jms,jme  -4 24 -4 15
  ips,ipe,jps,jpe  1 17 1 8
  *************************************
 DYNAMICS OPTION: Eulerian Mass Coordinate
    alloc_space_field: domain  1 ,  60562624  bytes allocated
   med_initialdata_input: calling input_input
Timing for processing wrfinput file (stream 0) for domain        1:    4.08751 elapsed seconds
 INPUT LandUse = "USGS"
  LANDUSE TYPE = "USGS" FOUND 33  CATEGORIES 2  SEASONS WATER CATEGORY =  16  SNOW CATEGORY =  24
 INITIALIZE THREE Noah LSM RELATED TABLES
  LANDUSE TYPE = USGS FOUND 27  CATEGORIES
  INPUT SOIL TEXTURE CLASSIFICATION = STAS
  SOIL TEXTURE CLASSIFICATION = STAS FOUND 19  CATEGORIES
 *********************************************************************
 *             PROGRAM:WRF/CHEM V3.6 MODEL
 *                                                                   *
 *    PLEASE REPORT ANY BUGS TO WRF/CHEM HELP at                     *
 *                                                                   *
 *              wrfchemhelp.gsd@noaa.gov                             *
 *                                                                   *
 *********************************************************************
 WARNING: dust option 1 currently works only with the GOCART aerosol option.
 WARNING: sea salt option 1 currently works only with the GOCART aerosol option.
  *************************************
  Nesting domain
  ids,ide,jds,jde  1 361 1 253
  ims,ime,jms,jme  -4 33 -4 21
  ips,ipe,jps,jpe  1 23 1 11
  INTERMEDIATE domain
  ids,ide,jds,jde  74 199 47 136
  ims,ime,jms,jme  69 93 42 62
  ips,ipe,jps,jpe  72 83 45 52
  *************************************
 d01 2016-02-05_12:00:00  alloc_space_field: domain  2 ,  100206516  bytes allocated
 d01 2016-02-05_12:00:00  alloc_space_field: domain  2 ,  6612900  bytes allocated
 d01 2016-02-05_12:00:00 *** Initializing nest domain # 2 from an input file. ***
 d01 2016-02-05_12:00:00 med_initialdata_input: calling input_input
Timing for processing wrfinput file (stream 0) for domain        2:    6.49607 elapsed seconds
 INPUT LandUse = "USGS"
  LANDUSE TYPE = "USGS" FOUND 33  CATEGORIES 2  SEASONS WATER CATEGORY =  16  SNOW CATEGORY =  24
 INITIALIZE THREE Noah LSM RELATED TABLES
  LANDUSE TYPE = USGS FOUND 27  CATEGORIES
  INPUT SOIL TEXTURE CLASSIFICATION = STAS
  SOIL TEXTURE CLASSIFICATION = STAS FOUND 19  CATEGORIES
 *********************************************************************
 *             PROGRAM:WRF/CHEM V3.6 MODEL
 *                                                                   *
 *    PLEASE REPORT ANY BUGS TO WRF/CHEM HELP at                     *
 *                                                                   *
 *              wrfchemhelp.gsd@noaa.gov                             *
 *                                                                   *
 *********************************************************************
 WARNING: dust option 1 currently works only with the GOCART aerosol option.
 WARNING: sea salt option 1 currently works only with the GOCART aerosol option.
 INPUT LandUse = "USGS"
  LANDUSE TYPE = "USGS" FOUND 33  CATEGORIES 2  SEASONS WATER CATEGORY =  16  SNOW CATEGORY =  24
 INITIALIZE THREE Noah LSM RELATED TABLES
  LANDUSE TYPE = USGS FOUND 27  CATEGORIES
  INPUT SOIL TEXTURE CLASSIFICATION = STAS
  SOIL TEXTURE CLASSIFICATION = STAS FOUND 19  CATEGORIES
 *********************************************************************
 *             PROGRAM:WRF/CHEM V3.6 MODEL
 *                                                                   *
 *    PLEASE REPORT ANY BUGS TO WRF/CHEM HELP at                     *
 *                                                                   *
 *              wrfchemhelp.gsd@noaa.gov                             *
 *                                                                   *
 *********************************************************************
 WARNING: dust option 1 currently works only with the GOCART aerosol option.
 WARNING: sea salt option 1 currently works only with the GOCART aerosol option.
 INPUT LandUse = "USGS"
  LANDUSE TYPE = "USGS" FOUND 33  CATEGORIES 2  SEASONS WATER CATEGORY =  16  SNOW CATEGORY =  24
 INITIALIZE THREE Noah LSM RELATED TABLES
  LANDUSE TYPE = USGS FOUND 27  CATEGORIES
  INPUT SOIL TEXTURE CLASSIFICATION = STAS
  SOIL TEXTURE CLASSIFICATION = STAS FOUND 19  CATEGORIES
 *********************************************************************
 *             PROGRAM:WRF/CHEM V3.6 MODEL
 *                                                                   *
 *    PLEASE REPORT ANY BUGS TO WRF/CHEM HELP at                     *
 *                                                                   *
 *              wrfchemhelp.gsd@noaa.gov                             *
 *                                                                   *
 *********************************************************************
 WARNING: dust option 1 currently works only with the GOCART aerosol option.
 WARNING: sea salt option 1 currently works only with the GOCART aerosol option.
Timing for Writing wrfout_d01_2016-02-05_12:00:00 for domain        1:    2.41161 elapsed seconds
  mediation_integrate: med_read_wrf_chem_emissions: Open file wrfchemi_12z_d01
  HOURLY EMISSIONS UPDATE TIME         .0        .0
 mediation_integrate: med_read_wrf_chem_emissions: Read emissions for time 2016-02-05_12:00:00
 **WARNING** Time in input file not being checked **WARNING**
Timing for processing lateral boundary for domain        1:    3.34761 elapsed seconds
  Tile Strategy is not specified. Assuming 1D-Y
 WRF TILE   1 IS      1 IE     17 JS      1 JE      8
 WRF NUMBER OF TILES =   1
  photolysis_driver: called for domain  1
  *************************************
  Nesting domain
  ids,ide,jds,jde  1 307 1 241
  ims,ime,jms,jme  -4 30 -4 21
  ips,ipe,jps,jpe  1 20 1 10
  INTERMEDIATE domain
  ids,ide,jds,jde  124 231 35 120
  ims,ime,jms,jme  119 142 30 49
  ips,ipe,jps,jpe  122 132 33 39
  *************************************
 d02 2016-02-05_12:00:00  alloc_space_field: domain  3 ,  92569520  bytes allocated
 d02 2016-02-05_12:00:00  alloc_space_field: domain  3 ,  6046080  bytes allocated
 d02 2016-02-05_12:00:00 *** Initializing nest domain # 3 from an input file. ***
 d02 2016-02-05_12:00:00 med_initialdata_input: calling input_input
Timing for processing wrfinput file (stream 0) for domain        3:    5.40341 elapsed seconds
 INPUT LandUse = "USGS"
  LANDUSE TYPE = "USGS" FOUND 33  CATEGORIES 2  SEASONS WATER CATEGORY =  16  SNOW CATEGORY =  24
 INITIALIZE THREE Noah LSM RELATED TABLES
  LANDUSE TYPE = USGS FOUND 27  CATEGORIES
  INPUT SOIL TEXTURE CLASSIFICATION = STAS
  SOIL TEXTURE CLASSIFICATION = STAS FOUND 19  CATEGORIES
 *********************************************************************
 *             PROGRAM:WRF/CHEM V3.6 MODEL
 *                                                                   *
 *    PLEASE REPORT ANY BUGS TO WRF/CHEM HELP at                     *
 *                                                                   *
 *              wrfchemhelp.gsd@noaa.gov                             *
 *                                                                   *
 *********************************************************************
 WARNING: dust option 1 currently works only with the GOCART aerosol option.
 WARNING: sea salt option 1 currently works only with the GOCART aerosol option.
 INPUT LandUse = "USGS"
  LANDUSE TYPE = "USGS" FOUND 33  CATEGORIES 2  SEASONS WATER CATEGORY =  16  SNOW CATEGORY =  24
 INITIALIZE THREE Noah LSM RELATED TABLES
  LANDUSE TYPE = USGS FOUND 27  CATEGORIES
  INPUT SOIL TEXTURE CLASSIFICATION = STAS
  SOIL TEXTURE CLASSIFICATION = STAS FOUND 19  CATEGORIES
 *********************************************************************
 *             PROGRAM:WRF/CHEM V3.6 MODEL
 *                                                                   *
 *    PLEASE REPORT ANY BUGS TO WRF/CHEM HELP at                     *
 *                                                                   *
 *              wrfchemhelp.gsd@noaa.gov                             *
 *                                                                   *
 *********************************************************************
 WARNING: dust option 1 currently works only with the GOCART aerosol option.
 WARNING: sea salt option 1 currently works only with the GOCART aerosol option.
 INPUT LandUse = "USGS"
  LANDUSE TYPE = "USGS" FOUND 33  CATEGORIES 2  SEASONS WATER CATEGORY =  16  SNOW CATEGORY =  24
 INITIALIZE THREE Noah LSM RELATED TABLES
  LANDUSE TYPE = USGS FOUND 27  CATEGORIES
  INPUT SOIL TEXTURE CLASSIFICATION = STAS
  SOIL TEXTURE CLASSIFICATION = STAS FOUND 19  CATEGORIES
 *********************************************************************
 *             PROGRAM:WRF/CHEM V3.6 MODEL
 *                                                                   *
 *    PLEASE REPORT ANY BUGS TO WRF/CHEM HELP at                     *
 *                                                                   *
 *              wrfchemhelp.gsd@noaa.gov                             *
 *                                                                   *
 *********************************************************************
 WARNING: dust option 1 currently works only with the GOCART aerosol option.
 WARNING: sea salt option 1 currently works only with the GOCART aerosol option.
  *************************************
  Nesting domain
  ids,ide,jds,jde  1 217 1 388
  ims,ime,jms,jme  -4 24 -4 27
  ips,ipe,jps,jpe  1 14 1 16
  INTERMEDIATE domain
  ids,ide,jds,jde  225 302 83 217
  ims,ime,jms,jme  220 241 78 99
  ips,ipe,jps,jpe  223 231 81 89
  *************************************
 d02 2016-02-05_12:00:00  alloc_space_field: domain  4 ,  94251040  bytes allocated
 d02 2016-02-05_12:00:00  alloc_space_field: domain  4 ,  6096464  bytes allocated
 d02 2016-02-05_12:00:00 *** Initializing nest domain # 4 from an input file. ***
 d02 2016-02-05_12:00:00 med_initialdata_input: calling input_input
Timing for processing wrfinput file (stream 0) for domain        4:    6.33816 elapsed seconds
 INPUT LandUse = "USGS"
  LANDUSE TYPE = "USGS" FOUND 33  CATEGORIES 2  SEASONS WATER CATEGORY =  16  SNOW CATEGORY =  24
 INITIALIZE THREE Noah LSM RELATED TABLES
  LANDUSE TYPE = USGS FOUND 27  CATEGORIES
  INPUT SOIL TEXTURE CLASSIFICATION = STAS
  SOIL TEXTURE CLASSIFICATION = STAS FOUND 19  CATEGORIES
 *********************************************************************
 *             PROGRAM:WRF/CHEM V3.6 MODEL
 *                                                                   *
 *    PLEASE REPORT ANY BUGS TO WRF/CHEM HELP at                     *
 *                                                                   *
 *              wrfchemhelp.gsd@noaa.gov                             *
 *                                                                   *
 *********************************************************************
 WARNING: dust option 1 currently works only with the GOCART aerosol option.
 WARNING: sea salt option 1 currently works only with the GOCART aerosol option.
 INPUT LandUse = "USGS"
  LANDUSE TYPE = "USGS" FOUND 33  CATEGORIES 2  SEASONS WATER CATEGORY =  16  SNOW CATEGORY =  24
 INITIALIZE THREE Noah LSM RELATED TABLES
  LANDUSE TYPE = USGS FOUND 27  CATEGORIES
  INPUT SOIL TEXTURE CLASSIFICATION = STAS
  SOIL TEXTURE CLASSIFICATION = STAS FOUND 19  CATEGORIES
 *********************************************************************
 *             PROGRAM:WRF/CHEM V3.6 MODEL
 *                                                                   *
 *    PLEASE REPORT ANY BUGS TO WRF/CHEM HELP at                     *
 *                                                                   *
 *              wrfchemhelp.gsd@noaa.gov                             *
 *                                                                   *
 *********************************************************************
 WARNING: dust option 1 currently works only with the GOCART aerosol option.
 WARNING: sea salt option 1 currently works only with the GOCART aerosol option.
 INPUT LandUse = "USGS"
  LANDUSE TYPE = "USGS" FOUND 33  CATEGORIES 2  SEASONS WATER CATEGORY =  16  SNOW CATEGORY =  24
 INITIALIZE THREE Noah LSM RELATED TABLES
  LANDUSE TYPE = USGS FOUND 27  CATEGORIES
  INPUT SOIL TEXTURE CLASSIFICATION = STAS
  SOIL TEXTURE CLASSIFICATION = STAS FOUND 19  CATEGORIES
 *********************************************************************
 *             PROGRAM:WRF/CHEM V3.6 MODEL
 *                                                                   *
 *    PLEASE REPORT ANY BUGS TO WRF/CHEM HELP at                     *
 *                                                                   *
 *              wrfchemhelp.gsd@noaa.gov                             *
 *                                                                   *
 *********************************************************************
 WARNING: dust option 1 currently works only with the GOCART aerosol option.
 WARNING: sea salt option 1 currently works only with the GOCART aerosol option.
Timing for Writing wrfout_d02_2016-02-05_12:00:00 for domain        2:    2.95405 elapsed seconds
  mediation_integrate: med_read_wrf_chem_emissions: Open file wrfchemi_12z_d02
  HOURLY EMISSIONS UPDATE TIME         .0        .0
 mediation_integrate: med_read_wrf_chem_emissions: Read emissions for time 2016-02-05_12:00:00
 **WARNING** Time in input file not being checked **WARNING**
  Tile Strategy is not specified. Assuming 1D-Y
 WRF TILE   1 IS      1 IE     23 JS      1 JE     11
 WRF NUMBER OF TILES =   1
  photolysis_driver: called for domain  2
Timing for Writing wrfout_d03_2016-02-05_12:00:00 for domain        3:    2.51751 elapsed seconds
  mediation_integrate: med_read_wrf_chem_emissions: Open file wrfchemi_12z_d03
  HOURLY EMISSIONS UPDATE TIME         .0        .0
 mediation_integrate: med_read_wrf_chem_emissions: Read emissions for time 2016-02-05_12:00:00
 **WARNING** Time in input file not being checked **WARNING**
  Tile Strategy is not specified. Assuming 1D-Y
 WRF TILE   1 IS      1 IE     20 JS      1 JE     10
 WRF NUMBER OF TILES =   1
  photolysis_driver: called for domain  3
Timing for main: time 2016-02-05_12:00:13 on domain   3:    7.03845 elapsed seconds
Timing for main: time 2016-02-05_12:00:26 on domain   3:     .55910 elapsed seconds
Timing for main: time 2016-02-05_12:00:40 on domain   3:     .09542 elapsed seconds
Timing for Writing wrfout_d04_2016-02-05_12:00:00 for domain        4:    2.70257 elapsed seconds
  mediation_integrate: med_read_wrf_chem_emissions: Open file wrfchemi_12z_d04
  HOURLY EMISSIONS UPDATE TIME         .0        .0
 mediation_integrate: med_read_wrf_chem_emissions: Read emissions for time 2016-02-05_12:00:00
 **WARNING** Time in input file not being checked **WARNING**
  Tile Strategy is not specified. Assuming 1D-Y
 WRF TILE   1 IS      1 IE     14 JS      1 JE     16
 WRF NUMBER OF TILES =   1
  photolysis_driver: called for domain  4
Timing for main: time 2016-02-05_12:00:20 on domain   4:    6.74302 elapsed seconds
Timing for main: time 2016-02-05_12:00:40 on domain   4:    1.02699 elapsed seconds
Timing for main: time 2016-02-05_12:00:40 on domain   2:   38.39407 elapsed seconds
Timing for main: time 2016-02-05_12:00:53 on domain   3:     .09638 elapsed seconds
Timing for main: time 2016-02-05_12:01:06 on domain   3:     .09737 elapsed seconds
Timing for main: time 2016-02-05_12:01:20 on domain   3:     .09809 elapsed seconds
Timing for main: time 2016-02-05_12:01:00 on domain   4:     .11048 elapsed seconds
Timing for main: time 2016-02-05_12:01:20 on domain   4:     .10698 elapsed seconds
Timing for main: time 2016-02-05_12:01:20 on domain   2:     .97832 elapsed seconds
Timing for main: time 2016-02-05_12:01:33 on domain   3:     .10010 elapsed seconds
Timing for main: time 2016-02-05_12:01:46 on domain   3:     .09250 elapsed seconds
Timing for main: time 2016-02-05_12:02:00 on domain   3:     .09990 elapsed seconds
Timing for main: time 2016-02-05_12:01:40 on domain   4:     .11073 elapsed seconds
Timing for main: time 2016-02-05_12:02:00 on domain   4:     .10800 elapsed seconds
Timing for main: time 2016-02-05_12:02:00 on domain   2:     .99407 elapsed seconds
Timing for main: time 2016-02-05_12:02:00 on domain   1:   56.31626 elapsed seconds
Timing for main: time 2016-02-05_12:02:13 on domain   3:     .09540 elapsed seconds
Timing for main: time 2016-02-05_12:02:26 on domain   3:     .09639 elapsed seconds
Timing for main: time 2016-02-05_12:02:40 on domain   3:     .09399 elapsed seconds
Timing for main: time 2016-02-05_12:02:20 on domain   4:     .11315 elapsed seconds
Timing for main: time 2016-02-05_12:02:40 on domain   4:     .10820 elapsed seconds
Timing for main: time 2016-02-05_12:02:40 on domain   2:    1.00028 elapsed seconds
Timing for main: time 2016-02-05_12:02:53 on domain   3:     .09691 elapsed seconds
Timing for main: time 2016-02-05_12:03:06 on domain   3:     .09331 elapsed seconds
Timing for main: time 2016-02-05_12:03:20 on domain   3:     .09732 elapsed seconds
Timing for main: time 2016-02-05_12:03:00 on domain   4:     .11304 elapsed seconds
Timing for main: time 2016-02-05_12:03:20 on domain   4:     .11193 elapsed seconds
Timing for main: time 2016-02-05_12:03:20 on domain   2:     .99627 elapsed seconds
Timing for main: time 2016-02-05_12:03:33 on domain   3:     .09434 elapsed seconds
Timing for main: time 2016-02-05_12:03:46 on domain   3:     .09377 elapsed seconds
Timing for main: time 2016-02-05_12:04:00 on domain   3:     .09277 elapsed seconds
Timing for main: time 2016-02-05_12:03:40 on domain   4:     .10853 elapsed seconds
Timing for main: time 2016-02-05_12:04:00 on domain   4:     .10442 elapsed seconds
Timing for main: time 2016-02-05_12:04:00 on domain   2:     .96992 elapsed seconds
Timing for main: time 2016-02-05_12:04:00 on domain   1:    3.19337 elapsed seconds
Timing for main: time 2016-02-05_12:04:13 on domain   3:     .09456 elapsed seconds
Timing for main: time 2016-02-05_12:04:26 on domain   3:     .09211 elapsed seconds
Timing for main: time 2016-02-05_12:04:40 on domain   3:     .09303 elapsed seconds
Timing for main: time 2016-02-05_12:04:20 on domain   4:     .10642 elapsed seconds
Timing for main: time 2016-02-05_12:04:40 on domain   4:     .10313 elapsed seconds
Timing for main: time 2016-02-05_12:04:40 on domain   2:     .97963 elapsed seconds
Timing for main: time 2016-02-05_12:04:53 on domain   3:     .09378 elapsed seconds
Timing for main: time 2016-02-05_12:05:06 on domain   3:     .09617 elapsed seconds
Timing for main: time 2016-02-05_12:05:20 on domain   3:     .09275 elapsed seconds
Timing for main: time 2016-02-05_12:05:00 on domain   4:     .11334 elapsed seconds
Timing for main: time 2016-02-05_12:05:20 on domain   4:     .10254 elapsed seconds
Timing for main: time 2016-02-05_12:05:20 on domain   2:     .97722 elapsed seconds
Timing for main: time 2016-02-05_12:05:33 on domain   3:     .09558 elapsed seconds
Timing for main: time 2016-02-05_12:05:46 on domain   3:     .09349 elapsed seconds
Timing for main: time 2016-02-05_12:06:00 on domain   3:     .09193 elapsed seconds
Timing for main: time 2016-02-05_12:05:40 on domain   4:     .10855 elapsed seconds
Timing for main: time 2016-02-05_12:06:00 on domain   4:     .10301 elapsed seconds
Timing for main: time 2016-02-05_12:06:00 on domain   2:     .97071 elapsed seconds
Timing for main: time 2016-02-05_12:06:00 on domain   1:    3.16487 elapsed seconds
Timing for main: time 2016-02-05_12:06:13 on domain   3:     .09368 elapsed seconds
Timing for main: time 2016-02-05_12:06:26 on domain   3:     .09277 elapsed seconds
Timing for main: time 2016-02-05_12:06:40 on domain   3:     .09312 elapsed seconds
Timing for main: time 2016-02-05_12:06:20 on domain   4:     .10845 elapsed seconds
Timing for main: time 2016-02-05_12:06:40 on domain   4:     .10314 elapsed seconds
Timing for main: time 2016-02-05_12:06:40 on domain   2:     .97942 elapsed seconds
Timing for main: time 2016-02-05_12:06:53 on domain   3:     .09418 elapsed seconds
Timing for main: time 2016-02-05_12:07:06 on domain   3:     .09255 elapsed seconds
Timing for main: time 2016-02-05_12:07:20 on domain   3:     .09470 elapsed seconds
Timing for main: time 2016-02-05_12:07:00 on domain   4:     .11485 elapsed seconds
Timing for main: time 2016-02-05_12:07:20 on domain   4:     .11938 elapsed seconds
Timing for main: time 2016-02-05_12:07:20 on domain   2:     .98841 elapsed seconds
Timing for main: time 2016-02-05_12:07:33 on domain   3:     .09400 elapsed seconds
Timing for main: time 2016-02-05_12:07:46 on domain   3:     .09162 elapsed seconds
Timing for main: time 2016-02-05_12:08:00 on domain   3:     .09343 elapsed seconds
Timing for main: time 2016-02-05_12:07:40 on domain   4:     .10881 elapsed seconds
Timing for main: time 2016-02-05_12:08:00 on domain   4:     .10312 elapsed seconds
Timing for main: time 2016-02-05_12:08:00 on domain   2:     .96520 elapsed seconds
Timing for main: time 2016-02-05_12:08:00 on domain   1:    3.16562 elapsed seconds
Timing for main: time 2016-02-05_12:08:13 on domain   3:     .09516 elapsed seconds
Timing for main: time 2016-02-05_12:08:26 on domain   3:     .09226 elapsed seconds
Timing for main: time 2016-02-05_12:08:40 on domain   3:     .09188 elapsed seconds
Timing for main: time 2016-02-05_12:08:20 on domain   4:     .10840 elapsed seconds
Timing for main: time 2016-02-05_12:08:40 on domain   4:     .10374 elapsed seconds
Timing for main: time 2016-02-05_12:08:40 on domain   2:     .98140 elapsed seconds
Timing for main: time 2016-02-05_12:08:53 on domain   3:     .09402 elapsed seconds
Timing for main: time 2016-02-05_12:09:06 on domain   3:     .09277 elapsed seconds
Timing for main: time 2016-02-05_12:09:20 on domain   3:     .09307 elapsed seconds
Timing for main: time 2016-02-05_12:09:00 on domain   4:     .10852 elapsed seconds
Timing for main: time 2016-02-05_12:09:20 on domain   4:     .10451 elapsed seconds
Timing for main: time 2016-02-05_12:09:20 on domain   2:     .97015 elapsed seconds
Timing for main: time 2016-02-05_12:09:33 on domain   3:     .09383 elapsed seconds
Timing for main: time 2016-02-05_12:09:46 on domain   3:     .09294 elapsed seconds
Timing for main: time 2016-02-05_12:10:00 on domain   3:     .09400 elapsed seconds
Timing for main: time 2016-02-05_12:09:40 on domain   4:     .10863 elapsed seconds
Timing for main: time 2016-02-05_12:10:00 on domain   4:     .10909 elapsed seconds
Timing for main: time 2016-02-05_12:10:00 on domain   2:     .97259 elapsed seconds
Timing for main: time 2016-02-05_12:10:00 on domain   1:    3.15742 elapsed seconds
Timing for main: time 2016-02-05_12:10:13 on domain   3:     .11979 elapsed seconds
Timing for main: time 2016-02-05_12:10:26 on domain   3:     .09706 elapsed seconds
Timing for main: time 2016-02-05_12:10:40 on domain   3:     .12120 elapsed seconds
Timing for main: time 2016-02-05_12:10:20 on domain   4:     .10910 elapsed seconds
Timing for main: time 2016-02-05_12:10:40 on domain   4:     .10335 elapsed seconds
Timing for main: time 2016-02-05_12:10:40 on domain   2:    1.05564 elapsed seconds
Timing for main: time 2016-02-05_12:10:53 on domain   3:     .09366 elapsed seconds
Timing for main: time 2016-02-05_12:11:06 on domain   3:     .09239 elapsed seconds
Timing for main: time 2016-02-05_12:11:20 on domain   3:     .09264 elapsed seconds
Timing for main: time 2016-02-05_12:11:00 on domain   4:     .11040 elapsed seconds
Timing for main: time 2016-02-05_12:11:20 on domain   4:     .10291 elapsed seconds
Timing for main: time 2016-02-05_12:11:20 on domain   2:     .96678 elapsed seconds
Timing for main: time 2016-02-05_12:11:33 on domain   3:     .09387 elapsed seconds
Timing for main: time 2016-02-05_12:11:46 on domain   3:     .09237 elapsed seconds
Timing for main: time 2016-02-05_12:12:00 on domain   3:     .09317 elapsed seconds
Timing for main: time 2016-02-05_12:11:40 on domain   4:     .10865 elapsed seconds
Timing for main: time 2016-02-05_12:12:00 on domain   4:     .10357 elapsed seconds
Timing for main: time 2016-02-05_12:12:00 on domain   2:     .96557 elapsed seconds
Timing for main: time 2016-02-05_12:12:00 on domain   1:    3.24507 elapsed seconds
Timing for main: time 2016-02-05_12:12:13 on domain   3:     .09377 elapsed seconds
Timing for main: time 2016-02-05_12:12:26 on domain   3:     .09255 elapsed seconds
Timing for main: time 2016-02-05_12:12:40 on domain   3:     .09314 elapsed seconds
Timing for main: time 2016-02-05_12:12:20 on domain   4:     .10885 elapsed seconds
Timing for main: time 2016-02-05_12:12:40 on domain   4:     .10487 elapsed seconds
Timing for main: time 2016-02-05_12:12:40 on domain   2:     .98268 elapsed seconds
Timing for main: time 2016-02-05_12:12:53 on domain   3:     .09401 elapsed seconds
Timing for main: time 2016-02-05_12:13:06 on domain   3:     .09438 elapsed seconds
Timing for main: time 2016-02-05_12:13:20 on domain   3:     .09236 elapsed seconds
Timing for main: time 2016-02-05_12:13:00 on domain   4:     .10880 elapsed seconds
Timing for main: time 2016-02-05_12:13:20 on domain   4:     .10394 elapsed seconds
Timing for main: time 2016-02-05_12:13:20 on domain   2:     .96751 elapsed seconds
Timing for main: time 2016-02-05_12:13:33 on domain   3:     .09372 elapsed seconds
Timing for main: time 2016-02-05_12:13:46 on domain   3:     .09262 elapsed seconds
Timing for main: time 2016-02-05_12:14:00 on domain   3:     .09253 elapsed seconds
Timing for main: time 2016-02-05_12:13:40 on domain   4:     .10864 elapsed seconds
Timing for main: time 2016-02-05_12:14:00 on domain   4:     .10345 elapsed seconds
Timing for main: time 2016-02-05_12:14:00 on domain   2:     .96510 elapsed seconds
Timing for main: time 2016-02-05_12:14:00 on domain   1:    3.14905 elapsed seconds
Timing for main: time 2016-02-05_12:14:13 on domain   3:     .09386 elapsed seconds
Timing for main: time 2016-02-05_12:14:26 on domain   3:     .09276 elapsed seconds
Timing for main: time 2016-02-05_12:14:40 on domain   3:     .09284 elapsed seconds
Timing for main: time 2016-02-05_12:14:20 on domain   4:     .10913 elapsed seconds
Timing for main: time 2016-02-05_12:14:40 on domain   4:     .10356 elapsed seconds
Timing for main: time 2016-02-05_12:14:40 on domain   2:     .98575 elapsed seconds
Timing for main: time 2016-02-05_12:14:53 on domain   3:     .09344 elapsed seconds
Timing for main: time 2016-02-05_12:15:06 on domain   3:     .09678 elapsed seconds
Timing for main: time 2016-02-05_12:15:20 on domain   3:     .09722 elapsed seconds
Timing for main: time 2016-02-05_12:15:00 on domain   4:     .11300 elapsed seconds
Timing for main: time 2016-02-05_12:15:20 on domain   4:     .10355 elapsed seconds
Timing for main: time 2016-02-05_12:15:20 on domain   2:    1.02998 elapsed seconds
Timing for main: time 2016-02-05_12:15:33 on domain   3:     .09448 elapsed seconds
Timing for main: time 2016-02-05_12:15:46 on domain   3:     .09200 elapsed seconds
Timing for main: time 2016-02-05_12:16:00 on domain   3:     .09278 elapsed seconds
Timing for main: time 2016-02-05_12:15:40 on domain   4:     .10921 elapsed seconds
Timing for main: time 2016-02-05_12:16:00 on domain   4:     .10322 elapsed seconds
Timing for main: time 2016-02-05_12:16:00 on domain   2:     .97094 elapsed seconds
Timing for main: time 2016-02-05_12:16:00 on domain   1:    3.22045 elapsed seconds
Timing for main: time 2016-02-05_12:16:13 on domain   3:     .09436 elapsed seconds
Timing for main: time 2016-02-05_12:16:26 on domain   3:     .09383 elapsed seconds
Timing for main: time 2016-02-05_12:16:40 on domain   3:     .09479 elapsed seconds
Timing for main: time 2016-02-05_12:16:20 on domain   4:     .10864 elapsed seconds
Timing for main: time 2016-02-05_12:16:40 on domain   4:     .10356 elapsed seconds
Timing for main: time 2016-02-05_12:16:40 on domain   2:     .98352 elapsed seconds
Timing for main: time 2016-02-05_12:16:53 on domain   3:     .09434 elapsed seconds
Timing for main: time 2016-02-05_12:17:06 on domain   3:     .09604 elapsed seconds
Timing for main: time 2016-02-05_12:17:20 on domain   3:     .09177 elapsed seconds
Timing for main: time 2016-02-05_12:17:00 on domain   4:     .10870 elapsed seconds
Timing for main: time 2016-02-05_12:17:20 on domain   4:     .11170 elapsed seconds
Timing for main: time 2016-02-05_12:17:20 on domain   2:     .97669 elapsed seconds
Timing for main: time 2016-02-05_12:17:33 on domain   3:     .09424 elapsed seconds
Timing for main: time 2016-02-05_12:17:46 on domain   3:     .09250 elapsed seconds
Timing for main: time 2016-02-05_12:18:00 on domain   3:     .09259 elapsed seconds
Timing for main: time 2016-02-05_12:17:40 on domain   4:     .10838 elapsed seconds
Timing for main: time 2016-02-05_12:18:00 on domain   4:     .10457 elapsed seconds
Timing for main: time 2016-02-05_12:18:00 on domain   2:     .96588 elapsed seconds
Timing for main: time 2016-02-05_12:18:00 on domain   1:    3.16312 elapsed seconds
Timing for main: time 2016-02-05_12:18:13 on domain   3:     .09579 elapsed seconds
Timing for main: time 2016-02-05_12:18:26 on domain   3:     .09227 elapsed seconds
Timing for main: time 2016-02-05_12:18:40 on domain   3:     .09171 elapsed seconds
Timing for main: time 2016-02-05_12:18:20 on domain   4:     .10874 elapsed seconds
Timing for main: time 2016-02-05_12:18:40 on domain   4:     .10347 elapsed seconds
Timing for main: time 2016-02-05_12:18:40 on domain   2:    1.03080 elapsed seconds
Timing for main: time 2016-02-05_12:18:53 on domain   3:     .09653 elapsed seconds
Timing for main: time 2016-02-05_12:19:06 on domain   3:     .09762 elapsed seconds
Timing for main: time 2016-02-05_12:19:20 on domain   3:     .09083 elapsed seconds
Timing for main: time 2016-02-05_12:19:00 on domain   4:     .10871 elapsed seconds
Timing for main: time 2016-02-05_12:19:20 on domain   4:     .10381 elapsed seconds
Timing for main: time 2016-02-05_12:19:20 on domain   2:     .97301 elapsed seconds
Timing for main: time 2016-02-05_12:19:33 on domain   3:     .09381 elapsed seconds
Timing for main: time 2016-02-05_12:19:46 on domain   3:     .09281 elapsed seconds
Timing for main: time 2016-02-05_12:20:00 on domain   3:     .09268 elapsed seconds
Timing for main: time 2016-02-05_12:19:40 on domain   4:     .10909 elapsed seconds
Timing for main: time 2016-02-05_12:20:00 on domain   4:     .10768 elapsed seconds
Timing for main: time 2016-02-05_12:20:00 on domain   2:     .96979 elapsed seconds
Timing for main: time 2016-02-05_12:20:00 on domain   1:    3.20782 elapsed seconds
Timing for main: time 2016-02-05_12:20:13 on domain   3:     .09657 elapsed seconds
Timing for main: time 2016-02-05_12:20:26 on domain   3:     .09528 elapsed seconds
Timing for main: time 2016-02-05_12:20:40 on domain   3:     .09268 elapsed seconds
Timing for main: time 2016-02-05_12:20:20 on domain   4:     .10853 elapsed seconds
Timing for main: time 2016-02-05_12:20:40 on domain   4:     .10377 elapsed seconds
Timing for main: time 2016-02-05_12:20:40 on domain   2:     .98661 elapsed seconds
Timing for main: time 2016-02-05_12:20:53 on domain   3:     .09392 elapsed seconds
Timing for main: time 2016-02-05_12:21:06 on domain   3:     .09316 elapsed seconds
Timing for main: time 2016-02-05_12:21:20 on domain   3:     .09236 elapsed seconds
Timing for main: time 2016-02-05_12:21:00 on domain   4:     .11177 elapsed seconds
Timing for main: time 2016-02-05_12:21:20 on domain   4:     .10349 elapsed seconds
Timing for main: time 2016-02-05_12:21:20 on domain   2:     .97863 elapsed seconds
Timing for main: time 2016-02-05_12:21:33 on domain   3:     .09420 elapsed seconds
Timing for main: time 2016-02-05_12:21:46 on domain   3:     .09257 elapsed seconds
Timing for main: time 2016-02-05_12:22:00 on domain   3:     .09760 elapsed seconds
Timing for main: time 2016-02-05_12:21:40 on domain   4:     .10946 elapsed seconds
Timing for main: time 2016-02-05_12:22:00 on domain   4:     .10311 elapsed seconds
Timing for main: time 2016-02-05_12:22:00 on domain   2:     .97718 elapsed seconds
Timing for main: time 2016-02-05_12:22:00 on domain   1:    3.17561 elapsed seconds
Timing for main: time 2016-02-05_12:22:13 on domain   3:     .09402 elapsed seconds
Timing for main: time 2016-02-05_12:22:26 on domain   3:     .09377 elapsed seconds
Timing for main: time 2016-02-05_12:22:40 on domain   3:     .09176 elapsed seconds
Timing for main: time 2016-02-05_12:22:20 on domain   4:     .10951 elapsed seconds
Timing for main: time 2016-02-05_12:22:40 on domain   4:     .10764 elapsed seconds
Timing for main: time 2016-02-05_12:22:40 on domain   2:     .98400 elapsed seconds
Timing for main: time 2016-02-05_12:22:53 on domain   3:     .09425 elapsed seconds
Timing for main: time 2016-02-05_12:23:06 on domain   3:     .09256 elapsed seconds
Timing for main: time 2016-02-05_12:23:20 on domain   3:     .09229 elapsed seconds
Timing for main: time 2016-02-05_12:23:00 on domain   4:     .10877 elapsed seconds
Timing for main: time 2016-02-05_12:23:20 on domain   4:     .10328 elapsed seconds
Timing for main: time 2016-02-05_12:23:20 on domain   2:     .96770 elapsed seconds
Timing for main: time 2016-02-05_12:23:33 on domain   3:     .09442 elapsed seconds
Timing for main: time 2016-02-05_12:23:46 on domain   3:     .09198 elapsed seconds
Timing for main: time 2016-02-05_12:24:00 on domain   3:     .09259 elapsed seconds
Timing for main: time 2016-02-05_12:23:40 on domain   4:     .10884 elapsed seconds
Timing for main: time 2016-02-05_12:24:00 on domain   4:     .10318 elapsed seconds
Timing for main: time 2016-02-05_12:24:00 on domain   2:     .96533 elapsed seconds
Timing for main: time 2016-02-05_12:24:00 on domain   1:    3.15415 elapsed seconds
Timing for main: time 2016-02-05_12:24:13 on domain   3:     .09424 elapsed seconds
Timing for main: time 2016-02-05_12:24:26 on domain   3:     .09220 elapsed seconds
Timing for main: time 2016-02-05_12:24:40 on domain   3:     .09253 elapsed seconds
Timing for main: time 2016-02-05_12:24:20 on domain   4:     .11050 elapsed seconds
Timing for main: time 2016-02-05_12:24:40 on domain   4:     .10274 elapsed seconds
Timing for main: time 2016-02-05_12:24:40 on domain   2:     .98098 elapsed seconds
Timing for main: time 2016-02-05_12:24:53 on domain   3:     .11379 elapsed seconds
Timing for main: time 2016-02-05_12:25:06 on domain   3:     .11632 elapsed seconds
Timing for main: time 2016-02-05_12:25:20 on domain   3:     .09120 elapsed seconds
Timing for main: time 2016-02-05_12:25:00 on domain   4:     .11328 elapsed seconds
Timing for main: time 2016-02-05_12:25:20 on domain   4:     .10288 elapsed seconds
Timing for main: time 2016-02-05_12:25:20 on domain   2:    1.01017 elapsed seconds
Timing for main: time 2016-02-05_12:25:33 on domain   3:     .09754 elapsed seconds
Timing for main: time 2016-02-05_12:25:46 on domain   3:     .09255 elapsed seconds
Timing for main: time 2016-02-05_12:26:00 on domain   3:     .09264 elapsed seconds
Timing for main: time 2016-02-05_12:25:40 on domain   4:     .10875 elapsed seconds
Timing for main: time 2016-02-05_12:26:00 on domain   4:     .10393 elapsed seconds
Timing for main: time 2016-02-05_12:26:00 on domain   2:     .96961 elapsed seconds
Timing for main: time 2016-02-05_12:26:00 on domain   1:    3.19451 elapsed seconds
Timing for main: time 2016-02-05_12:26:13 on domain   3:     .09411 elapsed seconds
Timing for main: time 2016-02-05_12:26:26 on domain   3:     .09225 elapsed seconds
Timing for main: time 2016-02-05_12:26:40 on domain   3:     .09248 elapsed seconds
Timing for main: time 2016-02-05_12:26:20 on domain   4:     .10990 elapsed seconds
Timing for main: time 2016-02-05_12:26:40 on domain   4:     .10384 elapsed seconds
Timing for main: time 2016-02-05_12:26:40 on domain   2:     .98627 elapsed seconds
Timing for main: time 2016-02-05_12:26:53 on domain   3:     .09394 elapsed seconds
Timing for main: time 2016-02-05_12:27:06 on domain   3:     .09263 elapsed seconds
Timing for main: time 2016-02-05_12:27:20 on domain   3:     .09185 elapsed seconds
Timing for main: time 2016-02-05_12:27:00 on domain   4:     .10881 elapsed seconds
Timing for main: time 2016-02-05_12:27:20 on domain   4:     .10364 elapsed seconds
Timing for main: time 2016-02-05_12:27:20 on domain   2:     .96421 elapsed seconds
Timing for main: time 2016-02-05_12:27:33 on domain   3:     .09405 elapsed seconds
Timing for main: time 2016-02-05_12:27:46 on domain   3:     .09246 elapsed seconds
Timing for main: time 2016-02-05_12:28:00 on domain   3:     .09256 elapsed seconds
Timing for main: time 2016-02-05_12:27:40 on domain   4:     .10851 elapsed seconds
Timing for main: time 2016-02-05_12:28:00 on domain   4:     .10393 elapsed seconds
Timing for main: time 2016-02-05_12:28:00 on domain   2:     .96493 elapsed seconds
Timing for main: time 2016-02-05_12:28:00 on domain   1:    3.14878 elapsed seconds
  photolysis_driver: called for domain  1
Timing for main: time 2016-02-05_12:28:13 on domain   3:     .09445 elapsed seconds
Timing for main: time 2016-02-05_12:28:26 on domain   3:     .09417 elapsed seconds
Timing for main: time 2016-02-05_12:28:40 on domain   3:     .10235 elapsed seconds
Timing for main: time 2016-02-05_12:28:20 on domain   4:     .10940 elapsed seconds
Timing for main: time 2016-02-05_12:28:40 on domain   4:     .10312 elapsed seconds
Timing for main: time 2016-02-05_12:28:40 on domain   2:    1.03104 elapsed seconds
Timing for main: time 2016-02-05_12:28:53 on domain   3:     .09394 elapsed seconds
Timing for main: time 2016-02-05_12:29:06 on domain   3:     .09318 elapsed seconds
Timing for main: time 2016-02-05_12:29:20 on domain   3:     .09229 elapsed seconds
Timing for main: time 2016-02-05_12:29:00 on domain   4:     .10866 elapsed seconds
Timing for main: time 2016-02-05_12:29:20 on domain   4:     .10363 elapsed seconds
Timing for main: time 2016-02-05_12:29:20 on domain   2:     .96829 elapsed seconds
  photolysis_driver: called for domain  2
Timing for main: time 2016-02-05_12:29:33 on domain   3:     .09367 elapsed seconds
Timing for main: time 2016-02-05_12:29:46 on domain   3:     .09369 elapsed seconds
  photolysis_driver: called for domain  3
Timing for main: time 2016-02-05_12:30:00 on domain   3:     .46244 elapsed seconds
Timing for main: time 2016-02-05_12:29:40 on domain   4:     .11006 elapsed seconds
  photolysis_driver: called for domain  4
Timing for main: time 2016-02-05_12:30:00 on domain   4:     .52788 elapsed seconds
Timing for main: time 2016-02-05_12:30:00 on domain   2:    2.28212 elapsed seconds
Timing for main: time 2016-02-05_12:30:00 on domain   1:    4.80498 elapsed seconds
Timing for main: time 2016-02-05_12:30:13 on domain   3:     .16748 elapsed seconds
Timing for main: time 2016-02-05_12:30:26 on domain   3:     .09234 elapsed seconds
Timing for main: time 2016-02-05_12:30:40 on domain   3:     .09565 elapsed seconds
Timing for main: time 2016-02-05_12:30:20 on domain   4:     .19371 elapsed seconds
Timing for main: time 2016-02-05_12:30:40 on domain   4:     .10341 elapsed seconds
Timing for main: time 2016-02-05_12:30:40 on domain   2:    1.23553 elapsed seconds
Timing for main: time 2016-02-05_12:30:53 on domain   3:     .09365 elapsed seconds
Timing for main: time 2016-02-05_12:31:06 on domain   3:     .09345 elapsed seconds
Timing for main: time 2016-02-05_12:31:20 on domain   3:     .09149 elapsed seconds
Timing for main: time 2016-02-05_12:31:00 on domain   4:     .10819 elapsed seconds
Timing for main: time 2016-02-05_12:31:20 on domain   4:     .10289 elapsed seconds
Timing for main: time 2016-02-05_12:31:20 on domain   2:     .96324 elapsed seconds
Timing for main: time 2016-02-05_12:31:33 on domain   3:     .09386 elapsed seconds
Timing for main: time 2016-02-05_12:31:46 on domain   3:     .09187 elapsed seconds
Timing for main: time 2016-02-05_12:32:00 on domain   3:     .09190 elapsed seconds
Timing for main: time 2016-02-05_12:31:40 on domain   4:     .11110 elapsed seconds
Timing for main: time 2016-02-05_12:32:00 on domain   4:     .10247 elapsed seconds
Timing for main: time 2016-02-05_12:32:00 on domain   2:     .96934 elapsed seconds
Timing for main: time 2016-02-05_12:32:00 on domain   1:    3.46602 elapsed seconds
Timing for main: time 2016-02-05_12:32:13 on domain   3:     .09383 elapsed seconds
Timing for main: time 2016-02-05_12:32:26 on domain   3:     .09175 elapsed seconds
Timing for main: time 2016-02-05_12:32:40 on domain   3:     .09209 elapsed seconds
Timing for main: time 2016-02-05_12:32:20 on domain   4:     .10833 elapsed seconds
Timing for main: time 2016-02-05_12:32:40 on domain   4:     .10519 elapsed seconds
Timing for main: time 2016-02-05_12:32:40 on domain   2:     .97892 elapsed seconds
Timing for main: time 2016-02-05_12:32:53 on domain   3:     .09401 elapsed seconds
Timing for main: time 2016-02-05_12:33:06 on domain   3:     .09157 elapsed seconds
Timing for main: time 2016-02-05_12:33:20 on domain   3:     .09215 elapsed seconds
Timing for main: time 2016-02-05_12:33:00 on domain   4:     .10835 elapsed seconds
Timing for main: time 2016-02-05_12:33:20 on domain   4:     .10328 elapsed seconds
Timing for main: time 2016-02-05_12:33:20 on domain   2:     .96296 elapsed seconds
Timing for main: time 2016-02-05_12:33:33 on domain   3:     .09411 elapsed seconds
Timing for main: time 2016-02-05_12:33:46 on domain   3:     .09216 elapsed seconds
Timing for main: time 2016-02-05_12:34:00 on domain   3:     .09217 elapsed seconds
Timing for main: time 2016-02-05_12:33:40 on domain   4:     .10920 elapsed seconds
Timing for main: time 2016-02-05_12:34:00 on domain   4:     .10364 elapsed seconds
Timing for main: time 2016-02-05_12:34:00 on domain   2:     .96464 elapsed seconds
Timing for main: time 2016-02-05_12:34:00 on domain   1:    3.13948 elapsed seconds
Timing for main: time 2016-02-05_12:34:13 on domain   3:     .09379 elapsed seconds
Timing for main: time 2016-02-05_12:34:26 on domain   3:     .09118 elapsed seconds
Timing for main: time 2016-02-05_12:34:40 on domain   3:     .09167 elapsed seconds
Timing for main: time 2016-02-05_12:34:20 on domain   4:     .10847 elapsed seconds
Timing for main: time 2016-02-05_12:34:40 on domain   4:     .10497 elapsed seconds
Timing for main: time 2016-02-05_12:34:40 on domain   2:     .97777 elapsed seconds
Timing for main: time 2016-02-05_12:34:53 on domain   3:     .09376 elapsed seconds
Timing for main: time 2016-02-05_12:35:06 on domain   3:     .09190 elapsed seconds
Timing for main: time 2016-02-05_12:35:20 on domain   3:     .09196 elapsed seconds
Timing for main: time 2016-02-05_12:35:00 on domain   4:     .11652 elapsed seconds
Timing for main: time 2016-02-05_12:35:20 on domain   4:     .10210 elapsed seconds
Timing for main: time 2016-02-05_12:35:20 on domain   2:     .96797 elapsed seconds
Timing for main: time 2016-02-05_12:35:33 on domain   3:     .09360 elapsed seconds
Timing for main: time 2016-02-05_12:35:46 on domain   3:     .09754 elapsed seconds
Timing for main: time 2016-02-05_12:36:00 on domain   3:     .09220 elapsed seconds
Timing for main: time 2016-02-05_12:35:40 on domain   4:     .10856 elapsed seconds
Timing for main: time 2016-02-05_12:36:00 on domain   4:     .10334 elapsed seconds
Timing for main: time 2016-02-05_12:36:00 on domain   2:     .96723 elapsed seconds
Timing for main: time 2016-02-05_12:36:00 on domain   1:    3.15075 elapsed seconds
Timing for main: time 2016-02-05_12:36:13 on domain   3:     .09388 elapsed seconds
Timing for main: time 2016-02-05_12:36:26 on domain   3:     .09251 elapsed seconds
Timing for main: time 2016-02-05_12:36:40 on domain   3:     .09182 elapsed seconds
Timing for main: time 2016-02-05_12:36:20 on domain   4:     .11696 elapsed seconds
Timing for main: time 2016-02-05_12:36:40 on domain   4:     .12756 elapsed seconds
Timing for main: time 2016-02-05_12:36:40 on domain   2:    1.01027 elapsed seconds
Timing for main: time 2016-02-05_12:36:53 on domain   3:     .09365 elapsed seconds
Timing for main: time 2016-02-05_12:37:06 on domain   3:     .09203 elapsed seconds
Timing for main: time 2016-02-05_12:37:20 on domain   3:     .09214 elapsed seconds
Timing for main: time 2016-02-05_12:37:00 on domain   4:     .10834 elapsed seconds
Timing for main: time 2016-02-05_12:37:20 on domain   4:     .10421 elapsed seconds
Timing for main: time 2016-02-05_12:37:20 on domain   2:     .97600 elapsed seconds
Timing for main: time 2016-02-05_12:37:33 on domain   3:     .09377 elapsed seconds
Timing for main: time 2016-02-05_12:37:46 on domain   3:     .09211 elapsed seconds
Timing for main: time 2016-02-05_12:38:00 on domain   3:     .09212 elapsed seconds
Timing for main: time 2016-02-05_12:37:40 on domain   4:     .12482 elapsed seconds
Timing for main: time 2016-02-05_12:38:00 on domain   4:     .14450 elapsed seconds
Timing for main: time 2016-02-05_12:38:00 on domain   2:    1.02013 elapsed seconds
Timing for main: time 2016-02-05_12:38:00 on domain   1:    3.24008 elapsed seconds
Timing for main: time 2016-02-05_12:38:13 on domain   3:     .09375 elapsed seconds
Timing for main: time 2016-02-05_12:38:26 on domain   3:     .09554 elapsed seconds
Timing for main: time 2016-02-05_12:38:40 on domain   3:     .09226 elapsed seconds
Timing for main: time 2016-02-05_12:38:20 on domain   4:     .10840 elapsed seconds
Timing for main: time 2016-02-05_12:38:40 on domain   4:     .10359 elapsed seconds
Timing for main: time 2016-02-05_12:38:40 on domain   2:     .97983 elapsed seconds
Timing for main: time 2016-02-05_12:38:53 on domain   3:     .09376 elapsed seconds
Timing for main: time 2016-02-05_12:39:06 on domain   3:     .09390 elapsed seconds
Timing for main: time 2016-02-05_12:39:20 on domain   3:     .09255 elapsed seconds
Timing for main: time 2016-02-05_12:39:00 on domain   4:     .11651 elapsed seconds
Timing for main: time 2016-02-05_12:39:20 on domain   4:     .10294 elapsed seconds
Timing for main: time 2016-02-05_12:39:20 on domain   2:     .97157 elapsed seconds
Timing for main: time 2016-02-05_12:39:33 on domain   3:     .09390 elapsed seconds
Timing for main: time 2016-02-05_12:39:46 on domain   3:     .09234 elapsed seconds
Timing for main: time 2016-02-05_12:40:00 on domain   3:     .09134 elapsed seconds
Timing for main: time 2016-02-05_12:39:40 on domain   4:     .10841 elapsed seconds
Timing for main: time 2016-02-05_12:40:00 on domain   4:     .10750 elapsed seconds
Timing for main: time 2016-02-05_12:40:00 on domain   2:     .96628 elapsed seconds
Timing for main: time 2016-02-05_12:40:00 on domain   1:    3.15357 elapsed seconds
Timing for main: time 2016-02-05_12:40:13 on domain   3:     .09392 elapsed seconds
Timing for main: time 2016-02-05_12:40:26 on domain   3:     .09248 elapsed seconds
Timing for main: time 2016-02-05_12:40:40 on domain   3:     .09377 elapsed seconds
Timing for main: time 2016-02-05_12:40:20 on domain   4:     .11163 elapsed seconds
Timing for main: time 2016-02-05_12:40:40 on domain   4:     .10416 elapsed seconds
Timing for main: time 2016-02-05_12:40:40 on domain   2:     .98505 elapsed seconds
Timing for main: time 2016-02-05_12:40:53 on domain   3:     .09755 elapsed seconds
Timing for main: time 2016-02-05_12:41:06 on domain   3:     .09148 elapsed seconds
Timing for main: time 2016-02-05_12:41:20 on domain   3:     .09211 elapsed seconds
Timing for main: time 2016-02-05_12:41:00 on domain   4:     .10803 elapsed seconds
Timing for main: time 2016-02-05_12:41:20 on domain   4:     .10339 elapsed seconds
Timing for main: time 2016-02-05_12:41:20 on domain   2:     .96607 elapsed seconds
Timing for main: time 2016-02-05_12:41:33 on domain   3:     .09557 elapsed seconds
Timing for main: time 2016-02-05_12:41:46 on domain   3:     .09006 elapsed seconds
Timing for main: time 2016-02-05_12:42:00 on domain   3:     .09219 elapsed seconds
Timing for main: time 2016-02-05_12:41:40 on domain   4:     .10836 elapsed seconds
Timing for main: time 2016-02-05_12:42:00 on domain   4:     .10387 elapsed seconds
Timing for main: time 2016-02-05_12:42:00 on domain   2:     .96325 elapsed seconds
Timing for main: time 2016-02-05_12:42:00 on domain   1:    3.15464 elapsed seconds
Timing for main: time 2016-02-05_12:42:13 on domain   3:     .09371 elapsed seconds
Timing for main: time 2016-02-05_12:42:26 on domain   3:     .09248 elapsed seconds
Timing for main: time 2016-02-05_12:42:40 on domain   3:     .09192 elapsed seconds
Timing for main: time 2016-02-05_12:42:20 on domain   4:     .10863 elapsed seconds
Timing for main: time 2016-02-05_12:42:40 on domain   4:     .10294 elapsed seconds
Timing for main: time 2016-02-05_12:42:40 on domain   2:     .98164 elapsed seconds
Timing for main: time 2016-02-05_12:42:53 on domain   3:     .11019 elapsed seconds
Timing for main: time 2016-02-05_12:43:06 on domain   3:     .11645 elapsed seconds
Timing for main: time 2016-02-05_12:43:20 on domain   3:     .13126 elapsed seconds
Timing for main: time 2016-02-05_12:43:00 on domain   4:     .10866 elapsed seconds
Timing for main: time 2016-02-05_12:43:20 on domain   4:     .10306 elapsed seconds
Timing for main: time 2016-02-05_12:43:20 on domain   2:    1.10414 elapsed seconds
Timing for main: time 2016-02-05_12:43:33 on domain   3:     .09431 elapsed seconds
Timing for main: time 2016-02-05_12:43:46 on domain   3:     .09164 elapsed seconds
Timing for main: time 2016-02-05_12:44:00 on domain   3:     .09125 elapsed seconds
Timing for main: time 2016-02-05_12:43:40 on domain   4:     .10901 elapsed seconds
Timing for main: time 2016-02-05_12:44:00 on domain   4:     .10347 elapsed seconds
Timing for main: time 2016-02-05_12:44:00 on domain   2:     .96282 elapsed seconds
Timing for main: time 2016-02-05_12:44:00 on domain   1:    3.28256 elapsed seconds
Timing for main: time 2016-02-05_12:44:13 on domain   3:     .09357 elapsed seconds
Timing for main: time 2016-02-05_12:44:26 on domain   3:     .09181 elapsed seconds
Timing for main: time 2016-02-05_12:44:40 on domain   3:     .09207 elapsed seconds
Timing for main: time 2016-02-05_12:44:20 on domain   4:     .10845 elapsed seconds
Timing for main: time 2016-02-05_12:44:40 on domain   4:     .10411 elapsed seconds
Timing for main: time 2016-02-05_12:44:40 on domain   2:     .97758 elapsed seconds
Timing for main: time 2016-02-05_12:44:53 on domain   3:     .09379 elapsed seconds
Timing for main: time 2016-02-05_12:45:06 on domain   3:     .09174 elapsed seconds
Timing for main: time 2016-02-05_12:45:20 on domain   3:     .09205 elapsed seconds
Timing for main: time 2016-02-05_12:45:00 on domain   4:     .11263 elapsed seconds
Timing for main: time 2016-02-05_12:45:20 on domain   4:     .10548 elapsed seconds
Timing for main: time 2016-02-05_12:45:20 on domain   2:     .96911 elapsed seconds
Timing for main: time 2016-02-05_12:45:33 on domain   3:     .09384 elapsed seconds
Timing for main: time 2016-02-05_12:45:46 on domain   3:     .09187 elapsed seconds
Timing for main: time 2016-02-05_12:46:00 on domain   3:     .09552 elapsed seconds
Timing for main: time 2016-02-05_12:45:40 on domain   4:     .10857 elapsed seconds
Timing for main: time 2016-02-05_12:46:00 on domain   4:     .10311 elapsed seconds
Timing for main: time 2016-02-05_12:46:00 on domain   2:     .96469 elapsed seconds
Timing for main: time 2016-02-05_12:46:00 on domain   1:    3.14440 elapsed seconds
Timing for main: time 2016-02-05_12:46:13 on domain   3:     .09356 elapsed seconds
Timing for main: time 2016-02-05_12:46:26 on domain   3:     .09189 elapsed seconds
Timing for main: time 2016-02-05_12:46:40 on domain   3:     .09184 elapsed seconds
Timing for main: time 2016-02-05_12:46:20 on domain   4:     .10903 elapsed seconds
Timing for main: time 2016-02-05_12:46:40 on domain   4:     .10681 elapsed seconds
Timing for main: time 2016-02-05_12:46:40 on domain   2:     .98031 elapsed seconds
Timing for main: time 2016-02-05_12:46:53 on domain   3:     .10856 elapsed seconds
Timing for main: time 2016-02-05_12:47:06 on domain   3:     .13239 elapsed seconds
Timing for main: time 2016-02-05_12:47:20 on domain   3:     .11385 elapsed seconds
Timing for main: time 2016-02-05_12:47:00 on domain   4:     .10831 elapsed seconds
Timing for main: time 2016-02-05_12:47:20 on domain   4:     .10328 elapsed seconds
Timing for main: time 2016-02-05_12:47:20 on domain   2:    1.04045 elapsed seconds
Timing for main: time 2016-02-05_12:47:33 on domain   3:     .09330 elapsed seconds
Timing for main: time 2016-02-05_12:47:46 on domain   3:     .09195 elapsed seconds
Timing for main: time 2016-02-05_12:48:00 on domain   3:     .09172 elapsed seconds
Timing for main: time 2016-02-05_12:47:40 on domain   4:     .10834 elapsed seconds
Timing for main: time 2016-02-05_12:48:00 on domain   4:     .10333 elapsed seconds
Timing for main: time 2016-02-05_12:48:00 on domain   2:     .96637 elapsed seconds
Timing for main: time 2016-02-05_12:48:00 on domain   1:    3.22595 elapsed seconds
Timing for main: time 2016-02-05_12:48:13 on domain   3:     .09365 elapsed seconds
Timing for main: time 2016-02-05_12:48:26 on domain   3:     .09605 elapsed seconds
Timing for main: time 2016-02-05_12:48:40 on domain   3:     .09136 elapsed seconds
Timing for main: time 2016-02-05_12:48:20 on domain   4:     .10855 elapsed seconds
Timing for main: time 2016-02-05_12:48:40 on domain   4:     .10241 elapsed seconds
Timing for main: time 2016-02-05_12:48:40 on domain   2:     .98006 elapsed seconds
Timing for main: time 2016-02-05_12:48:53 on domain   3:     .09397 elapsed seconds
Timing for main: time 2016-02-05_12:49:06 on domain   3:     .09286 elapsed seconds
Timing for main: time 2016-02-05_12:49:20 on domain   3:     .09345 elapsed seconds
Timing for main: time 2016-02-05_12:49:00 on domain   4:     .10823 elapsed seconds
Timing for main: time 2016-02-05_12:49:20 on domain   4:     .10263 elapsed seconds
Timing for main: time 2016-02-05_12:49:20 on domain   2:     .96471 elapsed seconds
Timing for main: time 2016-02-05_12:49:33 on domain   3:     .09392 elapsed seconds
Timing for main: time 2016-02-05_12:49:46 on domain   3:     .09189 elapsed seconds
Timing for main: time 2016-02-05_12:50:00 on domain   3:     .09152 elapsed seconds
Timing for main: time 2016-02-05_12:49:40 on domain   4:     .10971 elapsed seconds
Timing for main: time 2016-02-05_12:50:00 on domain   4:     .10679 elapsed seconds
Timing for main: time 2016-02-05_12:50:00 on domain   2:     .96764 elapsed seconds
Timing for main: time 2016-02-05_12:50:00 on domain   1:    3.14661 elapsed seconds
Timing for main: time 2016-02-05_12:50:13 on domain   3:     .09407 elapsed seconds
Timing for main: time 2016-02-05_12:50:26 on domain   3:     .09178 elapsed seconds
Timing for main: time 2016-02-05_12:50:40 on domain   3:     .09195 elapsed seconds
Timing for main: time 2016-02-05_12:50:20 on domain   4:     .10830 elapsed seconds
Timing for main: time 2016-02-05_12:50:40 on domain   4:     .10595 elapsed seconds
Timing for main: time 2016-02-05_12:50:40 on domain   2:     .98043 elapsed seconds
Timing for main: time 2016-02-05_12:50:53 on domain   3:     .09339 elapsed seconds
Timing for main: time 2016-02-05_12:51:06 on domain   3:     .09581 elapsed seconds
Timing for main: time 2016-02-05_12:51:20 on domain   3:     .09178 elapsed seconds
Timing for main: time 2016-02-05_12:51:00 on domain   4:     .10824 elapsed seconds
Timing for main: time 2016-02-05_12:51:20 on domain   4:     .10287 elapsed seconds
Timing for main: time 2016-02-05_12:51:20 on domain   2:     .96410 elapsed seconds
Timing for main: time 2016-02-05_12:51:33 on domain   3:     .09650 elapsed seconds
Timing for main: time 2016-02-05_12:51:46 on domain   3:     .09174 elapsed seconds
Timing for main: time 2016-02-05_12:52:00 on domain   3:     .09178 elapsed seconds
Timing for main: time 2016-02-05_12:51:40 on domain   4:     .10829 elapsed seconds
Timing for main: time 2016-02-05_12:52:00 on domain   4:     .10340 elapsed seconds
Timing for main: time 2016-02-05_12:52:00 on domain   2:     .96512 elapsed seconds
Timing for main: time 2016-02-05_12:52:00 on domain   1:    3.18059 elapsed seconds
Timing for main: time 2016-02-05_12:52:13 on domain   3:     .09354 elapsed seconds
Timing for main: time 2016-02-05_12:52:26 on domain   3:     .09234 elapsed seconds
Timing for main: time 2016-02-05_12:52:40 on domain   3:     .09162 elapsed seconds
Timing for main: time 2016-02-05_12:52:20 on domain   4:     .10849 elapsed seconds
Timing for main: time 2016-02-05_12:52:40 on domain   4:     .10420 elapsed seconds
Timing for main: time 2016-02-05_12:52:40 on domain   2:    1.03460 elapsed seconds
Timing for main: time 2016-02-05_12:52:53 on domain   3:     .09582 elapsed seconds
Timing for main: time 2016-02-05_12:53:06 on domain   3:     .09260 elapsed seconds
Timing for main: time 2016-02-05_12:53:20 on domain   3:     .09181 elapsed seconds
Timing for main: time 2016-02-05_12:53:00 on domain   4:     .11844 elapsed seconds
Timing for main: time 2016-02-05_12:53:20 on domain   4:     .10360 elapsed seconds
Timing for main: time 2016-02-05_12:53:20 on domain   2:    1.00519 elapsed seconds
Timing for main: time 2016-02-05_12:53:33 on domain   3:     .09377 elapsed seconds
Timing for main: time 2016-02-05_12:53:46 on domain   3:     .09184 elapsed seconds
Timing for main: time 2016-02-05_12:54:00 on domain   3:     .09155 elapsed seconds
Timing for main: time 2016-02-05_12:53:40 on domain   4:     .10861 elapsed seconds
Timing for main: time 2016-02-05_12:54:00 on domain   4:     .10327 elapsed seconds
Timing for main: time 2016-02-05_12:54:00 on domain   2:     .96119 elapsed seconds
Timing for main: time 2016-02-05_12:54:00 on domain   1:    3.24184 elapsed seconds
Timing for main: time 2016-02-05_12:54:13 on domain   3:     .09356 elapsed seconds
Timing for main: time 2016-02-05_12:54:26 on domain   3:     .09198 elapsed seconds
Timing for main: time 2016-02-05_12:54:40 on domain   3:     .09402 elapsed seconds
Timing for main: time 2016-02-05_12:54:20 on domain   4:     .10842 elapsed seconds
Timing for main: time 2016-02-05_12:54:40 on domain   4:     .10294 elapsed seconds
Timing for main: time 2016-02-05_12:54:40 on domain   2:     .97859 elapsed seconds
Timing for main: time 2016-02-05_12:54:53 on domain   3:     .09350 elapsed seconds
Timing for main: time 2016-02-05_12:55:06 on domain   3:     .09171 elapsed seconds
Timing for main: time 2016-02-05_12:55:20 on domain   3:     .11523 elapsed seconds
Timing for main: time 2016-02-05_12:55:00 on domain   4:     .11280 elapsed seconds
Timing for main: time 2016-02-05_12:55:20 on domain   4:     .10312 elapsed seconds
Timing for main: time 2016-02-05_12:55:20 on domain   2:    1.03231 elapsed seconds
Timing for main: time 2016-02-05_12:55:33 on domain   3:     .09351 elapsed seconds
Timing for main: time 2016-02-05_12:55:46 on domain   3:     .09179 elapsed seconds
Timing for main: time 2016-02-05_12:56:00 on domain   3:     .10116 elapsed seconds
Timing for main: time 2016-02-05_12:55:40 on domain   4:     .10869 elapsed seconds
Timing for main: time 2016-02-05_12:56:00 on domain   4:     .10303 elapsed seconds
Timing for main: time 2016-02-05_12:56:00 on domain   2:     .96952 elapsed seconds
Timing for main: time 2016-02-05_12:56:00 on domain   1:    3.21403 elapsed seconds
Timing for main: time 2016-02-05_12:56:13 on domain   3:     .09704 elapsed seconds
Timing for main: time 2016-02-05_12:56:26 on domain   3:     .09247 elapsed seconds
Timing for main: time 2016-02-05_12:56:40 on domain   3:     .09155 elapsed seconds
Timing for main: time 2016-02-05_12:56:20 on domain   4:     .10830 elapsed seconds
Timing for main: time 2016-02-05_12:56:40 on domain   4:     .12241 elapsed seconds
Timing for main: time 2016-02-05_12:56:40 on domain   2:     .99896 elapsed seconds
Timing for main: time 2016-02-05_12:56:53 on domain   3:     .09374 elapsed seconds
Timing for main: time 2016-02-05_12:57:06 on domain   3:     .09178 elapsed seconds
Timing for main: time 2016-02-05_12:57:20 on domain   3:     .09178 elapsed seconds
Timing for main: time 2016-02-05_12:57:00 on domain   4:     .10847 elapsed seconds
Timing for main: time 2016-02-05_12:57:20 on domain   4:     .10340 elapsed seconds
Timing for main: time 2016-02-05_12:57:20 on domain   2:     .96410 elapsed seconds
Timing for main: time 2016-02-05_12:57:33 on domain   3:     .09501 elapsed seconds
Timing for main: time 2016-02-05_12:57:46 on domain   3:     .09187 elapsed seconds
Timing for main: time 2016-02-05_12:58:00 on domain   3:     .09782 elapsed seconds
Timing for main: time 2016-02-05_12:57:40 on domain   4:     .11357 elapsed seconds
Timing for main: time 2016-02-05_12:58:00 on domain   4:     .11107 elapsed seconds
Timing for main: time 2016-02-05_12:58:00 on domain   2:     .98723 elapsed seconds
Timing for main: time 2016-02-05_12:58:00 on domain   1:    3.18375 elapsed seconds
  photolysis_driver: called for domain  1
Timing for main: time 2016-02-05_12:58:13 on domain   3:     .08935 elapsed seconds
Timing for main: time 2016-02-05_12:58:26 on domain   3:     .09133 elapsed seconds
Timing for main: time 2016-02-05_12:58:40 on domain   3:     .09267 elapsed seconds
Timing for main: time 2016-02-05_12:58:20 on domain   4:     .11389 elapsed seconds
Timing for main: time 2016-02-05_12:58:40 on domain   4:     .10531 elapsed seconds
Timing for main: time 2016-02-05_12:58:40 on domain   2:     .99122 elapsed seconds
Timing for main: time 2016-02-05_12:58:53 on domain   3:     .09394 elapsed seconds
Timing for main: time 2016-02-05_12:59:06 on domain   3:     .09610 elapsed seconds
Timing for main: time 2016-02-05_12:59:20 on domain   3:     .09292 elapsed seconds
Timing for main: time 2016-02-05_12:59:00 on domain   4:     .10814 elapsed seconds
Timing for main: time 2016-02-05_12:59:20 on domain   4:     .10335 elapsed seconds
Timing for main: time 2016-02-05_12:59:20 on domain   2:     .96670 elapsed seconds
  photolysis_driver: called for domain  2
Timing for main: time 2016-02-05_12:59:33 on domain   3:     .09392 elapsed seconds
Timing for main: time 2016-02-05_12:59:46 on domain   3:     .09158 elapsed seconds
  photolysis_driver: called for domain  3
Timing for main: time 2016-02-05_13:00:00 on domain   3:     .46399 elapsed seconds
Timing for main: time 2016-02-05_12:59:40 on domain   4:     .10835 elapsed seconds
  photolysis_driver: called for domain  4
Timing for main: time 2016-02-05_13:00:00 on domain   4:     .52795 elapsed seconds
Timing for main: time 2016-02-05_13:00:00 on domain   2:    2.22226 elapsed seconds
Timing for main: time 2016-02-05_13:00:00 on domain   1:    4.71319 elapsed seconds
Timing for Writing wrfout_d01_2016-02-05_13:00:00 for domain        1:    2.14259 elapsed seconds
  HOURLY EMISSIONS UPDATE TIME     3600.0        .0
 mediation_integrate: med_read_wrf_chem_emissions: Read emissions for time 2016-02-05_13:00:00
 **WARNING** Time in input file not being checked **WARNING**
Timing for Writing wrfout_d02_2016-02-05_13:00:00 for domain        2:    2.79236 elapsed seconds
Timing for Writing wrfout_d03_2016-02-05_13:00:00 for domain        3:    2.88973 elapsed seconds
Timing for main: time 2016-02-05_13:00:13 on domain   3:    3.06715 elapsed seconds
Timing for main: time 2016-02-05_13:00:26 on domain   3:     .10197 elapsed seconds
Timing for main: time 2016-02-05_13:00:40 on domain   3:     .09597 elapsed seconds
Timing for Writing wrfout_d04_2016-02-05_13:00:00 for domain        4:    2.67222 elapsed seconds
Timing for main: time 2016-02-05_13:00:20 on domain   4:    2.87139 elapsed seconds
Timing for main: time 2016-02-05_13:00:40 on domain   4:     .11199 elapsed seconds
Timing for main: time 2016-02-05_13:00:40 on domain   2:    9.62855 elapsed seconds
Timing for main: time 2016-02-05_13:00:53 on domain   3:     .09360 elapsed seconds
Timing for main: time 2016-02-05_13:01:06 on domain   3:     .09177 elapsed seconds
Timing for main: time 2016-02-05_13:01:20 on domain   3:     .09560 elapsed seconds
Timing for main: time 2016-02-05_13:01:00 on domain   4:     .10842 elapsed seconds
Timing for main: time 2016-02-05_13:01:20 on domain   4:     .10331 elapsed seconds
Timing for main: time 2016-02-05_13:01:20 on domain   2:     .97655 elapsed seconds
Timing for main: time 2016-02-05_13:01:33 on domain   3:     .09395 elapsed seconds
Timing for main: time 2016-02-05_13:01:46 on domain   3:     .09534 elapsed seconds
Timing for main: time 2016-02-05_13:02:00 on domain   3:     .09081 elapsed seconds
Timing for main: time 2016-02-05_13:01:40 on domain   4:     .10847 elapsed seconds
Timing for main: time 2016-02-05_13:02:00 on domain   4:     .10339 elapsed seconds
Timing for main: time 2016-02-05_13:02:00 on domain   2:     .96330 elapsed seconds
Timing for main: time 2016-02-05_13:02:00 on domain   1:   14.89410 elapsed seconds
Timing for main: time 2016-02-05_13:02:13 on domain   3:     .09367 elapsed seconds
Timing for main: time 2016-02-05_13:02:26 on domain   3:     .09174 elapsed seconds
Timing for main: time 2016-02-05_13:02:40 on domain   3:     .09439 elapsed seconds
Timing for main: time 2016-02-05_13:02:20 on domain   4:     .10852 elapsed seconds
Timing for main: time 2016-02-05_13:02:40 on domain   4:     .10321 elapsed seconds
Timing for main: time 2016-02-05_13:02:40 on domain   2:     .97704 elapsed seconds
Timing for main: time 2016-02-05_13:02:53 on domain   3:     .09385 elapsed seconds
Timing for main: time 2016-02-05_13:03:06 on domain   3:     .09198 elapsed seconds
Timing for main: time 2016-02-05_13:03:20 on domain   3:     .09181 elapsed seconds
Timing for main: time 2016-02-05_13:03:00 on domain   4:     .10832 elapsed seconds
Timing for main: time 2016-02-05_13:03:20 on domain   4:     .10512 elapsed seconds
Timing for main: time 2016-02-05_13:03:20 on domain   2:     .96310 elapsed seconds
Timing for main: time 2016-02-05_13:03:33 on domain   3:     .09379 elapsed seconds
Timing for main: time 2016-02-05_13:03:46 on domain   3:     .09164 elapsed seconds
Timing for main: time 2016-02-05_13:04:00 on domain   3:     .09212 elapsed seconds
Timing for main: time 2016-02-05_13:03:40 on domain   4:     .10834 elapsed seconds
Timing for main: time 2016-02-05_13:04:00 on domain   4:     .13373 elapsed seconds
Timing for main: time 2016-02-05_13:04:00 on domain   2:     .99683 elapsed seconds
Timing for main: time 2016-02-05_13:04:00 on domain   1:    3.17054 elapsed seconds
Timing for main: time 2016-02-05_13:04:13 on domain   3:     .09377 elapsed seconds
Timing for main: time 2016-02-05_13:04:26 on domain   3:     .09167 elapsed seconds
Timing for main: time 2016-02-05_13:04:40 on domain   3:     .09216 elapsed seconds
Timing for main: time 2016-02-05_13:04:20 on domain   4:     .11488 elapsed seconds
Timing for main: time 2016-02-05_13:04:40 on domain   4:     .10470 elapsed seconds
Timing for main: time 2016-02-05_13:04:40 on domain   2:    1.01110 elapsed seconds
Timing for main: time 2016-02-05_13:04:53 on domain   3:     .09374 elapsed seconds
Timing for main: time 2016-02-05_13:05:06 on domain   3:     .09188 elapsed seconds
Timing for main: time 2016-02-05_13:05:20 on domain   3:     .09206 elapsed seconds
Timing for main: time 2016-02-05_13:05:00 on domain   4:     .11288 elapsed seconds
Timing for main: time 2016-02-05_13:05:20 on domain   4:     .10559 elapsed seconds
Timing for main: time 2016-02-05_13:05:20 on domain   2:     .96861 elapsed seconds
Timing for main: time 2016-02-05_13:05:33 on domain   3:     .09359 elapsed seconds
Timing for main: time 2016-02-05_13:05:46 on domain   3:     .09171 elapsed seconds
Timing for main: time 2016-02-05_13:06:00 on domain   3:     .09413 elapsed seconds
Timing for main: time 2016-02-05_13:05:40 on domain   4:     .10834 elapsed seconds
Timing for main: time 2016-02-05_13:06:00 on domain   4:     .10336 elapsed seconds
Timing for main: time 2016-02-05_13:06:00 on domain   2:     .96904 elapsed seconds
Timing for main: time 2016-02-05_13:06:00 on domain   1:    3.24071 elapsed seconds
Timing for main: time 2016-02-05_13:06:13 on domain   3:     .09380 elapsed seconds
Timing for main: time 2016-02-05_13:06:26 on domain   3:     .09532 elapsed seconds
Timing for main: time 2016-02-05_13:06:40 on domain   3:     .09167 elapsed seconds
Timing for main: time 2016-02-05_13:06:20 on domain   4:     .10846 elapsed seconds
Timing for main: time 2016-02-05_13:06:40 on domain   4:     .10337 elapsed seconds
Timing for main: time 2016-02-05_13:06:40 on domain   2:     .98117 elapsed seconds
Timing for main: time 2016-02-05_13:06:53 on domain   3:     .09375 elapsed seconds
Timing for main: time 2016-02-05_13:07:06 on domain   3:     .09155 elapsed seconds
Timing for main: time 2016-02-05_13:07:20 on domain   3:     .09162 elapsed seconds
Timing for main: time 2016-02-05_13:07:00 on domain   4:     .10863 elapsed seconds
Timing for main: time 2016-02-05_13:07:20 on domain   4:     .11040 elapsed seconds
Timing for main: time 2016-02-05_13:07:20 on domain   2:     .96790 elapsed seconds
Timing for main: time 2016-02-05_13:07:33 on domain   3:     .09375 elapsed seconds
Timing for main: time 2016-02-05_13:07:46 on domain   3:     .09279 elapsed seconds
Timing for main: time 2016-02-05_13:08:00 on domain   3:     .12075 elapsed seconds
Timing for main: time 2016-02-05_13:07:40 on domain   4:     .11120 elapsed seconds
Timing for main: time 2016-02-05_13:08:00 on domain   4:     .10312 elapsed seconds
Timing for main: time 2016-02-05_13:08:00 on domain   2:    1.03524 elapsed seconds
Timing for main: time 2016-02-05_13:08:00 on domain   1:    3.21791 elapsed seconds
Timing for main: time 2016-02-05_13:08:13 on domain   3:     .10822 elapsed seconds
Timing for main: time 2016-02-05_13:08:26 on domain   3:     .13084 elapsed seconds
Timing for main: time 2016-02-05_13:08:40 on domain   3:     .09151 elapsed seconds
Timing for main: time 2016-02-05_13:08:20 on domain   4:     .10840 elapsed seconds
Timing for main: time 2016-02-05_13:08:40 on domain   4:     .10321 elapsed seconds
Timing for main: time 2016-02-05_13:08:40 on domain   2:    1.02951 elapsed seconds
Timing for main: time 2016-02-05_13:08:53 on domain   3:     .09424 elapsed seconds
Timing for main: time 2016-02-05_13:09:06 on domain   3:     .09277 elapsed seconds
Timing for main: time 2016-02-05_13:09:20 on domain   3:     .09195 elapsed seconds
Timing for main: time 2016-02-05_13:09:00 on domain   4:     .10866 elapsed seconds
Timing for main: time 2016-02-05_13:09:20 on domain   4:     .10953 elapsed seconds
Timing for main: time 2016-02-05_13:09:20 on domain   2:     .97614 elapsed seconds
Timing for main: time 2016-02-05_13:09:33 on domain   3:     .09529 elapsed seconds
Timing for main: time 2016-02-05_13:09:46 on domain   3:     .09294 elapsed seconds
Timing for main: time 2016-02-05_13:10:00 on domain   3:     .09489 elapsed seconds
Timing for main: time 2016-02-05_13:09:40 on domain   4:     .10828 elapsed seconds
Timing for main: time 2016-02-05_13:10:00 on domain   4:     .11178 elapsed seconds
Timing for main: time 2016-02-05_13:10:00 on domain   2:     .97556 elapsed seconds
Timing for main: time 2016-02-05_13:10:00 on domain   1:    3.21469 elapsed seconds
Timing for main: time 2016-02-05_13:10:13 on domain   3:     .09415 elapsed seconds
Timing for main: time 2016-02-05_13:10:26 on domain   3:     .09200 elapsed seconds
Timing for main: time 2016-02-05_13:10:40 on domain   3:     .09156 elapsed seconds
Timing for main: time 2016-02-05_13:10:20 on domain   4:     .10838 elapsed seconds
Timing for main: time 2016-02-05_13:10:40 on domain   4:     .10319 elapsed seconds
Timing for main: time 2016-02-05_13:10:40 on domain   2:     .97595 elapsed seconds
Timing for main: time 2016-02-05_13:10:53 on domain   3:     .09396 elapsed seconds
Timing for main: time 2016-02-05_13:11:06 on domain   3:     .09148 elapsed seconds
Timing for main: time 2016-02-05_13:11:20 on domain   3:     .09172 elapsed seconds
Timing for main: time 2016-02-05_13:11:00 on domain   4:     .11115 elapsed seconds
Timing for main: time 2016-02-05_13:11:20 on domain   4:     .10246 elapsed seconds
Timing for main: time 2016-02-05_13:11:20 on domain   2:     .96294 elapsed seconds
Timing for main: time 2016-02-05_13:11:33 on domain   3:     .09721 elapsed seconds
Timing for main: time 2016-02-05_13:11:46 on domain   3:     .09199 elapsed seconds
Timing for main: time 2016-02-05_13:12:00 on domain   3:     .09183 elapsed seconds
Timing for main: time 2016-02-05_13:11:40 on domain   4:     .10842 elapsed seconds
Timing for main: time 2016-02-05_13:12:00 on domain   4:     .10340 elapsed seconds
Timing for main: time 2016-02-05_13:12:00 on domain   2:     .96898 elapsed seconds
Timing for main: time 2016-02-05_13:12:00 on domain   1:    3.14553 elapsed seconds
Timing for main: time 2016-02-05_13:12:13 on domain   3:     .09386 elapsed seconds
Timing for main: time 2016-02-05_13:12:26 on domain   3:     .09131 elapsed seconds
Timing for main: time 2016-02-05_13:12:40 on domain   3:     .09163 elapsed seconds
Timing for main: time 2016-02-05_13:12:20 on domain   4:     .10850 elapsed seconds
Timing for main: time 2016-02-05_13:12:40 on domain   4:     .10333 elapsed seconds
Timing for main: time 2016-02-05_13:12:40 on domain   2:     .97554 elapsed seconds
Timing for main: time 2016-02-05_13:12:53 on domain   3:     .09394 elapsed seconds
Timing for main: time 2016-02-05_13:13:06 on domain   3:     .09119 elapsed seconds
Timing for main: time 2016-02-05_13:13:20 on domain   3:     .09198 elapsed seconds
Timing for main: time 2016-02-05_13:13:00 on domain   4:     .10839 elapsed seconds
Timing for main: time 2016-02-05_13:13:20 on domain   4:     .10709 elapsed seconds
Timing for main: time 2016-02-05_13:13:20 on domain   2:     .96510 elapsed seconds
Timing for main: time 2016-02-05_13:13:33 on domain   3:     .09395 elapsed seconds
Timing for main: time 2016-02-05_13:13:46 on domain   3:     .09167 elapsed seconds
Timing for main: time 2016-02-05_13:14:00 on domain   3:     .09174 elapsed seconds
Timing for main: time 2016-02-05_13:13:40 on domain   4:     .10877 elapsed seconds
Timing for main: time 2016-02-05_13:14:00 on domain   4:     .10327 elapsed seconds
Timing for main: time 2016-02-05_13:14:00 on domain   2:     .96998 elapsed seconds
Timing for main: time 2016-02-05_13:14:00 on domain   1:    3.14349 elapsed seconds
Timing for main: time 2016-02-05_13:14:13 on domain   3:     .09413 elapsed seconds
Timing for main: time 2016-02-05_13:14:26 on domain   3:     .09143 elapsed seconds
Timing for main: time 2016-02-05_13:14:40 on domain   3:     .09160 elapsed seconds
Timing for main: time 2016-02-05_13:14:20 on domain   4:     .10901 elapsed seconds
Timing for main: time 2016-02-05_13:14:40 on domain   4:     .10314 elapsed seconds
Timing for main: time 2016-02-05_13:14:40 on domain   2:     .97992 elapsed seconds
Timing for main: time 2016-02-05_13:14:53 on domain   3:     .09400 elapsed seconds
Timing for main: time 2016-02-05_13:15:06 on domain   3:     .09207 elapsed seconds
Timing for main: time 2016-02-05_13:15:20 on domain   3:     .09175 elapsed seconds
Timing for main: time 2016-02-05_13:15:00 on domain   4:     .11252 elapsed seconds
Timing for main: time 2016-02-05_13:15:20 on domain   4:     .10766 elapsed seconds
Timing for main: time 2016-02-05_13:15:20 on domain   2:     .96962 elapsed seconds
Timing for main: time 2016-02-05_13:15:33 on domain   3:     .09437 elapsed seconds
Timing for main: time 2016-02-05_13:15:46 on domain   3:     .09207 elapsed seconds
Timing for main: time 2016-02-05_13:16:00 on domain   3:     .09231 elapsed seconds
Timing for main: time 2016-02-05_13:15:40 on domain   4:     .10833 elapsed seconds
Timing for main: time 2016-02-05_13:16:00 on domain   4:     .10333 elapsed seconds
Timing for main: time 2016-02-05_13:16:00 on domain   2:     .96051 elapsed seconds
Timing for main: time 2016-02-05_13:16:00 on domain   1:    3.14296 elapsed seconds
Timing for main: time 2016-02-05_13:16:13 on domain   3:     .09412 elapsed seconds
Timing for main: time 2016-02-05_13:16:26 on domain   3:     .09138 elapsed seconds
Timing for main: time 2016-02-05_13:16:40 on domain   3:     .09492 elapsed seconds
Timing for main: time 2016-02-05_13:16:20 on domain   4:     .10835 elapsed seconds
Timing for main: time 2016-02-05_13:16:40 on domain   4:     .10397 elapsed seconds
Timing for main: time 2016-02-05_13:16:40 on domain   2:     .98013 elapsed seconds
Timing for main: time 2016-02-05_13:16:53 on domain   3:     .09366 elapsed seconds
Timing for main: time 2016-02-05_13:17:06 on domain   3:     .09133 elapsed seconds
Timing for main: time 2016-02-05_13:17:20 on domain   3:     .09204 elapsed seconds
Timing for main: time 2016-02-05_13:17:00 on domain   4:     .10835 elapsed seconds
Timing for main: time 2016-02-05_13:17:20 on domain   4:     .10302 elapsed seconds
Timing for main: time 2016-02-05_13:17:20 on domain   2:     .96107 elapsed seconds
[...]
Timing for main: time 2016-02-05_17:36:00 on domain   2:     .96935 elapsed seconds
Timing for main: time 2016-02-05_17:36:00 on domain   1:    3.16775 elapsed seconds
Timing for main: time 2016-02-05_17:36:13 on domain   3:     .09424 elapsed seconds
Timing for main: time 2016-02-05_17:36:26 on domain   3:     .09175 elapsed seconds
Timing for main: time 2016-02-05_17:36:40 on domain   3:     .09209 elapsed seconds
Timing for main: time 2016-02-05_17:36:20 on domain   4:     .10865 elapsed seconds
Timing for main: time 2016-02-05_17:36:40 on domain   4:     .10239 elapsed seconds
Timing for main: time 2016-02-05_17:36:40 on domain   2:     .97795 elapsed seconds
Timing for main: time 2016-02-05_17:36:53 on domain   3:     .09494 elapsed seconds
Timing for main: time 2016-02-05_17:37:06 on domain   3:     .09203 elapsed seconds
Timing for main: time 2016-02-05_17:37:20 on domain   3:     .09543 elapsed seconds
Timing for main: time 2016-02-05_17:37:00 on domain   4:     .10830 elapsed seconds
Timing for main: time 2016-02-05_17:37:20 on domain   4:     .10279 elapsed seconds
Timing for main: time 2016-02-05_17:37:20 on domain   2:     .96794 elapsed seconds
Timing for main: time 2016-02-05_17:37:33 on domain   3:     .09471 elapsed seconds
Timing for main: time 2016-02-05_17:37:46 on domain   3:     .09199 elapsed seconds
Timing for main: time 2016-02-05_17:38:00 on domain   3:     .09173 elapsed seconds
Timing for main: time 2016-02-05_17:37:40 on domain   4:     .10861 elapsed seconds
Timing for main: time 2016-02-05_17:38:00 on domain   4:     .10485 elapsed seconds
Timing for main: time 2016-02-05_17:38:00 on domain   2:     .96625 elapsed seconds
Timing for main: time 2016-02-05_17:38:00 on domain   1:    3.14397 elapsed seconds
Timing for main: time 2016-02-05_17:38:13 on domain   3:     .09455 elapsed seconds
Timing for main: time 2016-02-05_17:38:26 on domain   3:     .09154 elapsed seconds
Timing for main: time 2016-02-05_17:38:40 on domain   3:     .09190 elapsed seconds
Timing for main: time 2016-02-05_17:38:20 on domain   4:     .10846 elapsed seconds
Timing for main: time 2016-02-05_17:38:40 on domain   4:     .10315 elapsed seconds
Timing for main: time 2016-02-05_17:38:40 on domain   2:     .97808 elapsed seconds
Timing for main: time 2016-02-05_17:38:53 on domain   3:     .09449 elapsed seconds
Timing for main: time 2016-02-05_17:39:06 on domain   3:     .09258 elapsed seconds
Timing for main: time 2016-02-05_17:39:20 on domain   3:     .09369 elapsed seconds
Timing for main: time 2016-02-05_17:39:00 on domain   4:     .11031 elapsed seconds
Timing for main: time 2016-02-05_17:39:20 on domain   4:     .10422 elapsed seconds
Timing for main: time 2016-02-05_17:39:20 on domain   2:     .97042 elapsed seconds
Timing for main: time 2016-02-05_17:39:33 on domain   3:     .09461 elapsed seconds
Timing for main: time 2016-02-05_17:39:46 on domain   3:     .09181 elapsed seconds
Timing for main: time 2016-02-05_17:40:00 on domain   3:     .09192 elapsed seconds
Timing for main: time 2016-02-05_17:39:40 on domain   4:     .10847 elapsed seconds
Timing for main: time 2016-02-05_17:40:00 on domain   4:     .11527 elapsed seconds
Timing for main: time 2016-02-05_17:40:00 on domain   2:     .97891 elapsed seconds
Timing for main: time 2016-02-05_17:40:00 on domain   1:    3.15931 elapsed seconds
Timing for main: time 2016-02-05_17:40:13 on domain   3:     .09456 elapsed seconds
Timing for main: time 2016-02-05_17:40:26 on domain   3:     .09164 elapsed seconds
Timing for main: time 2016-02-05_17:40:40 on domain   3:     .09174 elapsed seconds
Timing for main: time 2016-02-05_17:40:20 on domain   4:     .12383 elapsed seconds
Timing for main: time 2016-02-05_17:40:40 on domain   4:     .13537 elapsed seconds
Timing for main: time 2016-02-05_17:40:40 on domain   2:    1.02687 elapsed seconds
Timing for main: time 2016-02-05_17:40:53 on domain   3:     .09479 elapsed seconds
Timing for main: time 2016-02-05_17:41:06 on domain   3:     .09164 elapsed seconds
Timing for main: time 2016-02-05_17:41:20 on domain   3:     .09183 elapsed seconds
Timing for main: time 2016-02-05_17:41:00 on domain   4:     .12792 elapsed seconds
Timing for main: time 2016-02-05_17:41:20 on domain   4:     .14343 elapsed seconds
Timing for main: time 2016-02-05_17:41:20 on domain   2:    1.02910 elapsed seconds
Timing for main: time 2016-02-05_17:41:33 on domain   3:     .09465 elapsed seconds
Timing for main: time 2016-02-05_17:41:46 on domain   3:     .09182 elapsed seconds
Timing for main: time 2016-02-05_17:42:00 on domain   3:     .09180 elapsed seconds
Timing for main: time 2016-02-05_17:41:40 on domain   4:     .10860 elapsed seconds
Timing for main: time 2016-02-05_17:42:00 on domain   4:     .10245 elapsed seconds
Timing for main: time 2016-02-05_17:42:00 on domain   2:     .96285 elapsed seconds
Timing for main: time 2016-02-05_17:42:00 on domain   1:    3.31850 elapsed seconds
Timing for main: time 2016-02-05_17:42:13 on domain   3:     .09463 elapsed seconds
Timing for main: time 2016-02-05_17:42:26 on domain   3:     .09574 elapsed seconds
Timing for main: time 2016-02-05_17:42:40 on domain   3:     .09065 elapsed seconds
Timing for main: time 2016-02-05_17:42:20 on domain   4:     .10877 elapsed seconds
Timing for main: time 2016-02-05_17:42:40 on domain   4:     .10334 elapsed seconds
Timing for main: time 2016-02-05_17:42:40 on domain   2:     .98116 elapsed seconds
Timing for main: time 2016-02-05_17:42:53 on domain   3:     .09493 elapsed seconds
Timing for main: time 2016-02-05_17:43:06 on domain   3:     .09169 elapsed seconds
Timing for main: time 2016-02-05_17:43:20 on domain   3:     .08866 elapsed seconds
Timing for main: time 2016-02-05_17:43:00 on domain   4:     .10877 elapsed seconds
Timing for main: time 2016-02-05_17:43:20 on domain   4:     .10369 elapsed seconds
Timing for main: time 2016-02-05_17:43:20 on domain   2:     .98632 elapsed seconds
Timing for main: time 2016-02-05_17:43:33 on domain   3:     .09441 elapsed seconds
Timing for main: time 2016-02-05_17:43:46 on domain   3:     .09154 elapsed seconds
Timing for main: time 2016-02-05_17:44:00 on domain   3:     .11105 elapsed seconds
Timing for main: time 2016-02-05_17:43:40 on domain   4:     .10872 elapsed seconds
Timing for main: time 2016-02-05_17:44:00 on domain   4:     .10268 elapsed seconds
Timing for main: time 2016-02-05_17:44:00 on domain   2:    1.01921 elapsed seconds
Timing for main: time 2016-02-05_17:44:00 on domain   1:    3.21999 elapsed seconds
Timing for main: time 2016-02-05_17:44:13 on domain   3:     .09495 elapsed seconds
Timing for main: time 2016-02-05_17:44:26 on domain   3:     .09003 elapsed seconds
Timing for main: time 2016-02-05_17:44:40 on domain   3:     .09183 elapsed seconds
Timing for main: time 2016-02-05_17:44:20 on domain   4:     .11007 elapsed seconds
Timing for main: time 2016-02-05_17:44:40 on domain   4:     .10339 elapsed seconds
Timing for main: time 2016-02-05_17:44:40 on domain   2:     .97805 elapsed seconds
Timing for main: time 2016-02-05_17:44:53 on domain   3:     .09473 elapsed seconds
Timing for main: time 2016-02-05_17:45:06 on domain   3:     .08862 elapsed seconds
Timing for main: time 2016-02-05_17:45:20 on domain   3:     .09087 elapsed seconds
Timing for main: time 2016-02-05_17:45:00 on domain   4:     .11327 elapsed seconds
Timing for main: time 2016-02-05_17:45:20 on domain   4:     .10596 elapsed seconds
Timing for main: time 2016-02-05_17:45:20 on domain   2:     .97818 elapsed seconds
Timing for main: time 2016-02-05_17:45:33 on domain   3:     .09455 elapsed seconds
Timing for main: time 2016-02-05_17:45:46 on domain   3:     .09448 elapsed seconds
Timing for main: time 2016-02-05_17:46:00 on domain   3:     .09238 elapsed seconds
Timing for main: time 2016-02-05_17:45:40 on domain   4:     .10842 elapsed seconds
Timing for main: time 2016-02-05_17:46:00 on domain   4:     .10341 elapsed seconds
Timing for main: time 2016-02-05_17:46:00 on domain   2:     .96683 elapsed seconds
Timing for main: time 2016-02-05_17:46:00 on domain   1:    3.15653 elapsed seconds
Timing for main: time 2016-02-05_17:46:13 on domain   3:     .09451 elapsed seconds
Timing for main: time 2016-02-05_17:46:26 on domain   3:     .09081 elapsed seconds
Timing for main: time 2016-02-05_17:46:40 on domain   3:     .09181 elapsed seconds
Timing for main: time 2016-02-05_17:46:20 on domain   4:     .10848 elapsed seconds
Timing for main: time 2016-02-05_17:46:40 on domain   4:     .10341 elapsed seconds
Timing for main: time 2016-02-05_17:46:40 on domain   2:     .98182 elapsed seconds
Timing for main: time 2016-02-05_17:46:53 on domain   3:     .09494 elapsed seconds
Timing for main: time 2016-02-05_17:47:06 on domain   3:     .09192 elapsed seconds
Timing for main: time 2016-02-05_17:47:20 on domain   3:     .09329 elapsed seconds
Timing for main: time 2016-02-05_17:47:00 on domain   4:     .10853 elapsed seconds
Timing for main: time 2016-02-05_17:47:20 on domain   4:     .10344 elapsed seconds
Timing for main: time 2016-02-05_17:47:20 on domain   2:     .96603 elapsed seconds
Timing for main: time 2016-02-05_17:47:33 on domain   3:     .09842 elapsed seconds
Timing for main: time 2016-02-05_17:47:46 on domain   3:     .08869 elapsed seconds
Timing for main: time 2016-02-05_17:48:00 on domain   3:     .09079 elapsed seconds
Timing for main: time 2016-02-05_17:47:40 on domain   4:     .10852 elapsed seconds
Timing for main: time 2016-02-05_17:48:00 on domain   4:     .10576 elapsed seconds
Timing for main: time 2016-02-05_17:48:00 on domain   2:     .98251 elapsed seconds
Timing for main: time 2016-02-05_17:48:00 on domain   1:    3.16738 elapsed seconds
Timing for main: time 2016-02-05_17:48:13 on domain   3:     .09453 elapsed seconds
Timing for main: time 2016-02-05_17:48:26 on domain   3:     .09030 elapsed seconds
Timing for main: time 2016-02-05_17:48:40 on domain   3:     .09191 elapsed seconds
Timing for main: time 2016-02-05_17:48:20 on domain   4:     .10856 elapsed seconds
Timing for main: time 2016-02-05_17:48:40 on domain   4:     .10340 elapsed seconds
Timing for main: time 2016-02-05_17:48:40 on domain   2:     .97683 elapsed seconds
Timing for main: time 2016-02-05_17:48:53 on domain   3:     .09467 elapsed seconds
Timing for main: time 2016-02-05_17:49:06 on domain   3:     .09097 elapsed seconds
Timing for main: time 2016-02-05_17:49:20 on domain   3:     .09182 elapsed seconds
Timing for main: time 2016-02-05_17:49:00 on domain   4:     .10868 elapsed seconds
Timing for main: time 2016-02-05_17:49:20 on domain   4:     .10351 elapsed seconds
Timing for main: time 2016-02-05_17:49:20 on domain   2:     .96453 elapsed seconds
Timing for main: time 2016-02-05_17:49:33 on domain   3:     .09670 elapsed seconds
Timing for main: time 2016-02-05_17:49:46 on domain   3:     .09094 elapsed seconds
Timing for main: time 2016-02-05_17:50:00 on domain   3:     .09183 elapsed seconds
Timing for main: time 2016-02-05_17:49:40 on domain   4:     .10832 elapsed seconds
Timing for main: time 2016-02-05_17:50:00 on domain   4:     .10819 elapsed seconds
Timing for main: time 2016-02-05_17:50:00 on domain   2:     .97099 elapsed seconds
Timing for main: time 2016-02-05_17:50:00 on domain   1:    3.14621 elapsed seconds
Timing for main: time 2016-02-05_17:50:13 on domain   3:     .09495 elapsed seconds
Timing for main: time 2016-02-05_17:50:26 on domain   3:     .10398 elapsed seconds
Timing for main: time 2016-02-05_17:50:40 on domain   3:     .09386 elapsed seconds
Timing for main: time 2016-02-05_17:50:20 on domain   4:     .10854 elapsed seconds
Timing for main: time 2016-02-05_17:50:40 on domain   4:     .10283 elapsed seconds
Timing for main: time 2016-02-05_17:50:40 on domain   2:    1.00403 elapsed seconds
Timing for main: time 2016-02-05_17:50:53 on domain   3:     .09479 elapsed seconds
Timing for main: time 2016-02-05_17:51:06 on domain   3:     .09129 elapsed seconds
Timing for main: time 2016-02-05_17:51:20 on domain   3:     .09160 elapsed seconds
Timing for main: time 2016-02-05_17:51:00 on domain   4:     .10863 elapsed seconds
Timing for main: time 2016-02-05_17:51:20 on domain   4:     .10340 elapsed seconds
Timing for main: time 2016-02-05_17:51:20 on domain   2:     .96431 elapsed seconds
Timing for main: time 2016-02-05_17:51:33 on domain   3:     .09457 elapsed seconds
Timing for main: time 2016-02-05_17:51:46 on domain   3:     .09071 elapsed seconds
Timing for main: time 2016-02-05_17:52:00 on domain   3:     .09209 elapsed seconds
Timing for main: time 2016-02-05_17:51:40 on domain   4:     .10843 elapsed seconds
Timing for main: time 2016-02-05_17:52:00 on domain   4:     .11406 elapsed seconds
Timing for main: time 2016-02-05_17:52:00 on domain   2:     .97963 elapsed seconds
Timing for main: time 2016-02-05_17:52:00 on domain   1:    3.18120 elapsed seconds
Timing for main: time 2016-02-05_17:52:13 on domain   3:     .09460 elapsed seconds
Timing for main: time 2016-02-05_17:52:26 on domain   3:     .09278 elapsed seconds
Timing for main: time 2016-02-05_17:52:40 on domain   3:     .12132 elapsed seconds
Timing for main: time 2016-02-05_17:52:20 on domain   4:     .10921 elapsed seconds
Timing for main: time 2016-02-05_17:52:40 on domain   4:     .10332 elapsed seconds
Timing for main: time 2016-02-05_17:52:40 on domain   2:    1.00846 elapsed seconds
Timing for main: time 2016-02-05_17:52:53 on domain   3:     .09495 elapsed seconds
Timing for main: time 2016-02-05_17:53:06 on domain   3:     .09045 elapsed seconds
Timing for main: time 2016-02-05_17:53:20 on domain   3:     .09203 elapsed seconds
Timing for main: time 2016-02-05_17:53:00 on domain   4:     .11052 elapsed seconds
Timing for main: time 2016-02-05_17:53:20 on domain   4:     .10343 elapsed seconds
Timing for main: time 2016-02-05_17:53:20 on domain   2:     .96542 elapsed seconds
Timing for main: time 2016-02-05_17:53:33 on domain   3:     .09461 elapsed seconds
Timing for main: time 2016-02-05_17:53:46 on domain   3:     .09065 elapsed seconds
Timing for main: time 2016-02-05_17:54:00 on domain   3:     .09464 elapsed seconds
Timing for main: time 2016-02-05_17:53:40 on domain   4:     .10857 elapsed seconds
Timing for main: time 2016-02-05_17:54:00 on domain   4:     .10342 elapsed seconds
Timing for main: time 2016-02-05_17:54:00 on domain   2:     .96261 elapsed seconds
Timing for main: time 2016-02-05_17:54:00 on domain   1:    3.21639 elapsed seconds
Timing for main: time 2016-02-05_17:54:13 on domain   3:     .09565 elapsed seconds
Timing for main: time 2016-02-05_17:54:26 on domain   3:     .09049 elapsed seconds
Timing for main: time 2016-02-05_17:54:40 on domain   3:     .09190 elapsed seconds
Timing for main: time 2016-02-05_17:54:20 on domain   4:     .10875 elapsed seconds
Timing for main: time 2016-02-05_17:54:40 on domain   4:     .10453 elapsed seconds
Timing for main: time 2016-02-05_17:54:40 on domain   2:     .97927 elapsed seconds
Timing for main: time 2016-02-05_17:54:53 on domain   3:     .09489 elapsed seconds
Timing for main: time 2016-02-05_17:55:06 on domain   3:     .09285 elapsed seconds
Timing for main: time 2016-02-05_17:55:20 on domain   3:     .09162 elapsed seconds
Timing for main: time 2016-02-05_17:55:00 on domain   4:     .11272 elapsed seconds
Timing for main: time 2016-02-05_17:55:20 on domain   4:     .10374 elapsed seconds
Timing for main: time 2016-02-05_17:55:20 on domain   2:     .96707 elapsed seconds
Timing for main: time 2016-02-05_17:55:33 on domain   3:     .09501 elapsed seconds
Timing for main: time 2016-02-05_17:55:46 on domain   3:     .09087 elapsed seconds
Timing for main: time 2016-02-05_17:56:00 on domain   3:     .09180 elapsed seconds
Timing for main: time 2016-02-05_17:55:40 on domain   4:     .10865 elapsed seconds
Timing for main: time 2016-02-05_17:56:00 on domain   4:     .10328 elapsed seconds
Timing for main: time 2016-02-05_17:56:00 on domain   2:    1.02491 elapsed seconds
Timing for main: time 2016-02-05_17:56:00 on domain   1:    3.20471 elapsed seconds
Timing for main: time 2016-02-05_17:56:13 on domain   3:     .09511 elapsed seconds
Timing for main: time 2016-02-05_17:56:26 on domain   3:     .09250 elapsed seconds
Timing for main: time 2016-02-05_17:56:40 on domain   3:     .09213 elapsed seconds
Timing for main: time 2016-02-05_17:56:20 on domain   4:     .10872 elapsed seconds
Timing for main: time 2016-02-05_17:56:40 on domain   4:     .10226 elapsed seconds
Timing for main: time 2016-02-05_17:56:40 on domain   2:     .97876 elapsed seconds
Timing for main: time 2016-02-05_17:56:53 on domain   3:     .09487 elapsed seconds
Timing for main: time 2016-02-05_17:57:06 on domain   3:     .09280 elapsed seconds
Timing for main: time 2016-02-05_17:57:20 on domain   3:     .09172 elapsed seconds
Timing for main: time 2016-02-05_17:57:00 on domain   4:     .10871 elapsed seconds
Timing for main: time 2016-02-05_17:57:20 on domain   4:     .10136 elapsed seconds
Timing for main: time 2016-02-05_17:57:20 on domain   2:     .99277 elapsed seconds
Timing for main: time 2016-02-05_17:57:33 on domain   3:     .09488 elapsed seconds
Timing for main: time 2016-02-05_17:57:46 on domain   3:     .09521 elapsed seconds
Timing for main: time 2016-02-05_17:58:00 on domain   3:     .09183 elapsed seconds
Timing for main: time 2016-02-05_17:57:40 on domain   4:     .10861 elapsed seconds
Timing for main: time 2016-02-05_17:58:00 on domain   4:     .10397 elapsed seconds
Timing for main: time 2016-02-05_17:58:00 on domain   2:     .96773 elapsed seconds
Timing for main: time 2016-02-05_17:58:00 on domain   1:    3.17300 elapsed seconds
  photolysis_driver: called for domain  1
Timing for main: time 2016-02-05_17:58:13 on domain   3:     .09455 elapsed seconds
Timing for main: time 2016-02-05_17:58:26 on domain   3:     .09166 elapsed seconds
Timing for main: time 2016-02-05_17:58:40 on domain   3:     .09193 elapsed seconds
Timing for main: time 2016-02-05_17:58:20 on domain   4:     .10709 elapsed seconds
Timing for main: time 2016-02-05_17:58:40 on domain   4:     .10418 elapsed seconds
Timing for main: time 2016-02-05_17:58:40 on domain   2:     .97748 elapsed seconds
Timing for main: time 2016-02-05_17:58:53 on domain   3:     .09480 elapsed seconds
Timing for main: time 2016-02-05_17:59:06 on domain   3:     .09153 elapsed seconds
Timing for main: time 2016-02-05_17:59:20 on domain   3:     .09233 elapsed seconds
Timing for main: time 2016-02-05_17:59:00 on domain   4:     .10868 elapsed seconds
Timing for main: time 2016-02-05_17:59:20 on domain   4:     .10157 elapsed seconds
Timing for main: time 2016-02-05_17:59:20 on domain   2:     .97437 elapsed seconds
  photolysis_driver: called for domain  2
Timing for main: time 2016-02-05_17:59:33 on domain   3:     .09953 elapsed seconds
Timing for main: time 2016-02-05_17:59:46 on domain   3:     .12919 elapsed seconds
  photolysis_driver: called for domain  3
Timing for main: time 2016-02-05_18:00:00 on domain   3:     .50401 elapsed seconds
Timing for Writing wrfout_d03_2016-02-05_18:00:00 for domain        3:    2.48465 elapsed seconds
Timing for main: time 2016-02-05_17:59:40 on domain   4:     .11601 elapsed seconds
  photolysis_driver: called for domain  4
Timing for main: time 2016-02-05_18:00:00 on domain   4:     .54518 elapsed seconds
Timing for Writing wrfout_d04_2016-02-05_18:00:00 for domain        4:    2.67978 elapsed seconds
Timing for main: time 2016-02-05_18:00:00 on domain   2:    7.50164 elapsed seconds
Timing for Writing wrfout_d02_2016-02-05_18:00:00 for domain        2:    3.32601 elapsed seconds
Timing for main: time 2016-02-05_18:00:00 on domain   1:   13.26716 elapsed seconds
Timing for Writing wrfout_d01_2016-02-05_18:00:00 for domain        1:    2.88278 elapsed seconds
 d01 2016-02-05_18:00:00 wrf: SUCCESS COMPLETE WRF
